<?xml version="1.0" encoding="UTF-8"?>
<routes xmlns:xsi="http://www.w3.org/2001/XMLSchema-instance" xsi:noNamespaceSchemaLocation="http://sumo.dlr.de/xsd/routes_file.xsd">
	<trip id="0" depart="0.00" from="edgeId_Shape005_1_1_St" to="edgeId_Shape009_24_1_St"/>
	<trip id="1" depart="1.00" from="edgeId_Shape006_2_1_St" to="edgeId_Shape010_23_1_St"/>
	<trip id="2" depart="2.00" from="edgeId_Shape003_3_1_St" to="edgeId_Shape021_31_1_St"/>
	<trip id="3" depart="3.00" from="edgeId_Shape003_3_1_St" to="edgeId_Shape022_30_1_St"/>
	<trip id="4" depart="4.00" from="edgeId_Shape025_4_1_St" to="edgeId_Shape025_4_1_St"/>
	<trip id="5" depart="5.00" from="edgeId_Shape024_5_1_St" to="edgeId_Shape024_5_1_St"/>
	<trip id="6" depart="6.00" from="edgeId_Shape011_6_1_St" to="edgeId_Shape011_6_1_St"/>
	<trip id="7" depart="7.00" from="edgeId_Shape014_7_1_St" to="edgeId_Shape014_7_1_St"/>
	<trip id="8" depart="8.00" from="edgeId_Shape017_8_1_St" to="edgeId_Shape017_8_1_St"/>
	<trip id="9" depart="9.00" from="edgeId_Shape029_9_1_St" to="edgeId_Shape029_9_1_St"/>
	<trip id="10" depart="10.00" from="edgeId_Shape019_10_1_St" to="edgeId_Shape019_10_1_St"/>
	<trip id="11" depart="11.00" from="edgeId_Shape016_11_1_St" to="edgeId_Shape015_27_1_St"/>
	<trip id="12" depart="12.00" from="edgeId_Shape016_11_1_St" to="edgeId_Shape018_14_1_St"/>
	<trip id="13" depart="13.00" from="edgeId_Shape034_12_1_St" to="edgeId_Shape034_12_1_St"/>
	<trip id="14" depart="14.00" from="edgeId_Shape023_13_1_St" to="edgeId_Shape023_13_1_St"/>
	<trip id="15" depart="15.00" from="edgeId_Shape030_15_1_St" to="edgeId_Shape013_16_1_St"/>
	<trip id="16" depart="16.00" from="edgeId_Shape032_17_1_St" to="edgeId_Shape032_17_1_St"/>
	<trip id="17" depart="17.00" from="edgeId_Shape033_18_1_St" to="edgeId_Shape012_32_1_St"/>
	<trip id="18" depart="18.00" from="edgeId_Shape020_19_1_St" to="edgeId_Shape020_19_1_St"/>
	<trip id="19" depart="19.00" from="edgeId_Shape031_20_1_St" to="edgeId_Shape031_20_1_St"/>
	<trip id="20" depart="20.00" from="edgeId_Shape027_21_1_St" to="edgeId_Shape012_32_1_St"/>
	<trip id="21" depart="21.00" from="edgeId_Shape026_22_1_St" to="edgeId_Shape026_22_1_St"/>
	<trip id="22" depart="22.00" from="edgeId_Shape004_25_1_St" to="edgeId_Shape008_26_1_St"/>
	<trip id="23" depart="23.00" from="edgeId_Shape002_28_1_St" to="edgeId_Shape007_29_1_St"/>
	<trip id="24" depart="24.00" from="edgeId_Shape028_33_1_St" to="edgeId_Shape028_33_1_St"/>
</routes>