<?xml version="1.0" encoding="UTF-8"?>

<!-- generated on 2022-06-20 15:03:25 by Eclipse SUMO netedit Version 1.10.0
<configuration xmlns:xsi="http://www.w3.org/2001/XMLSchema-instance" xsi:noNamespaceSchemaLocation="http://sumo.dlr.de/xsd/netconvertConfiguration.xsd">

    <input>
        <sumo-net-file value="D:\@Tll_Training\SUMO_Projects\CombineLanes\1.BeforeCombine.net.xml"/>
    </input>

    <output>
        <output-file value="D:\@Tll_Training\SUMO_Projects\CombineLanes\1.BeforeCombine.net.xml"/>
    </output>

    <processing>
        <geometry.min-radius.fix.railways value="false"/>
        <geometry.max-grade.fix value="false"/>
        <offset.disable-normalization value="true"/>
        <lefthand value="false"/>
    </processing>

    <junctions>
        <no-turnarounds value="true"/>
        <junctions.corner-detail value="5"/>
        <junctions.limit-turn-speed value="5.5"/>
        <rectangular-lane-cut value="false"/>
    </junctions>

    <pedestrian>
        <walkingareas value="false"/>
    </pedestrian>

    <netedit>
        <route-files value="D:\@Tll_Training\SUMO_Projects\CombineLanes\1.BeforeCombine.rou.xml"/>
    </netedit>

    <report>
        <aggregate-warnings value="5"/>
    </report>

</configuration>
-->

<routes xmlns:xsi="http://www.w3.org/2001/XMLSchema-instance" xsi:noNamespaceSchemaLocation="http://sumo.dlr.de/xsd/routes_file.xsd">
    <trip id="0" depart="0.00" from="a3" to="c3"/>
    <trip id="vehicle_1" depart="0.00" from="a3" to="c3"/>
    <trip id="vehicle_10" depart="0.00" from="e4" to="d2"/>
    <trip id="vehicle_11" depart="0.00" from="e5" to="d2"/>
    <trip id="vehicle_12" depart="0.00" from="e2" to="c3"/>
    <trip id="vehicle_13" depart="0.00" from="e2" to="d2"/>
    <trip id="vehicle_14" depart="0.00" from="e2" to="d2"/>
    <trip id="vehicle_15" depart="0.00" from="e2" to="c3"/>
    <trip id="vehicle_16" depart="0.00" from="b2" to="f1"/>
    <trip id="vehicle_17" depart="0.00" from="b2" to="e4"/>
    <trip id="vehicle_18" depart="0.00" from="b2" to="c3"/>
    <trip id="vehicle_19" depart="0.00" from="b2" to="d2"/>
    <trip id="vehicle_2" depart="0.00" from="a3" to="c3"/>
    <trip id="vehicle_20" depart="0.00" from="b2" to="d2"/>
    <trip id="vehicle_21" depart="0.00" from="c1" to="f1"/>
    <trip id="vehicle_22" depart="0.00" from="c1" to="d2"/>
    <trip id="vehicle_23" depart="0.00" from="c1" to="c3"/>
    <trip id="vehicle_24" depart="0.00" from="e4" to="e5"/>
    <trip id="vehicle_25" depart="0.00" from="e4" to="d2"/>
    <trip id="vehicle_26" depart="0.00" from="e4" to="c3"/>
    <trip id="vehicle_3" depart="0.00" from="a3" to="f1"/>
    <trip id="vehicle_4" depart="0.00" from="a3" to="f1"/>
    <trip id="vehicle_5" depart="0.00" from="a3" to="d2"/>
    <trip id="vehicle_6" depart="0.00" from="a3" to="d2"/>
    <trip id="vehicle_7" depart="0.00" from="a3" to="d2"/>
    <trip id="vehicle_8" depart="0.00" from="a3" to="e4"/>
    <trip id="vehicle_9" depart="0.00" from="e4" to="c3"/>
</routes>
