<?xml version="1.0" encoding="UTF-8"?>

<!-- generated on 2022-07-02 14:17:35 by Eclipse SUMO netedit Version 1.10.0
<configuration xmlns:xsi="http://www.w3.org/2001/XMLSchema-instance" xsi:noNamespaceSchemaLocation="http://sumo.dlr.de/xsd/netconvertConfiguration.xsd">

    <input>
        <sumo-net-file value="D:\@TLL_Projects\Rocket_ODD%203D%20Environment\Assets\StreamingAssets\Simulation%20Data\Round1and2.net.xml"/>
    </input>

    <output>
        <output-file value="D:\@TLL_Projects\Rocket_ODD%203D%20Environment\Assets\StreamingAssets\Simulation%20Data\Round1and2.net.xml"/>
    </output>

    <processing>
        <geometry.min-radius.fix.railways value="false"/>
        <geometry.max-grade.fix value="false"/>
        <offset.disable-normalization value="true"/>
        <lefthand value="false"/>
    </processing>

    <junctions>
        <no-turnarounds value="true"/>
        <junctions.corner-detail value="5"/>
        <junctions.limit-turn-speed value="5.5"/>
        <rectangular-lane-cut value="false"/>
    </junctions>

    <pedestrian>
        <walkingareas value="false"/>
    </pedestrian>

    <report>
        <aggregate-warnings value="5"/>
    </report>

</configuration>
-->

<net version="1.9" junctionCornerDetail="5" limitTurnSpeed="5.50" xmlns:xsi="http://www.w3.org/2001/XMLSchema-instance" xsi:noNamespaceSchemaLocation="http://sumo.dlr.de/xsd/net_file.xsd">

    <location netOffset="0.00,0.00" convBoundary="3248.57,-34.47,3525.82,157.06" origBoundary="3248.57,-34.47,3525.82,157.06" projParameter="!"/>

    <edge id=":JuctionFrom_Shape344_40_1_St-JuctionTo_Shape346_42_1_Ed-JuctionTo_Shape345_54_1_Ed_0" function="internal">
        <lane id=":JuctionFrom_Shape344_40_1_St-JuctionTo_Shape346_42_1_Ed-JuctionTo_Shape345_54_1_Ed_0_0" index="0" allow="private emergency authority army vip passenger hov taxi bus coach delivery truck trailer motorcycle evehicle custom1 custom2" speed="18.06" length="2.66" shape="3435.88,-6.65,-23.42 3435.77,-9.31,-23.42"/>
    </edge>
    <edge id=":JuctionFrom_Shape344_40_1_St-JuctionTo_Shape346_42_1_Ed-JuctionTo_Shape345_54_1_Ed_1" function="internal">
        <lane id=":JuctionFrom_Shape344_40_1_St-JuctionTo_Shape346_42_1_Ed-JuctionTo_Shape345_54_1_Ed_1_0" index="0" allow="private emergency authority army vip passenger hov taxi bus coach delivery truck trailer motorcycle evehicle custom1 custom2" speed="18.06" length="3.00" shape="3435.72,-6.31,-23.42 3435.77,-9.31,-23.42"/>
    </edge>
    <edge id=":JuctionFrom_Shape346_42_1_St-JuctionFrom_Shape347_51_1_St-JuctionTo_Shape387_60_1_Ed_0" function="internal">
        <lane id=":JuctionFrom_Shape346_42_1_St-JuctionFrom_Shape347_51_1_St-JuctionTo_Shape387_60_1_Ed_0_0" index="0" allow="private emergency authority army vip passenger hov taxi bus coach delivery truck trailer motorcycle evehicle custom1 custom2" speed="18.06" length="27.97" shape="3437.53,21.47,-23.42 3435.89,-6.45,-23.42"/>
    </edge>
    <edge id=":JuctionFrom_Shape346_42_1_St-JuctionFrom_Shape347_51_1_St-JuctionTo_Shape387_60_1_Ed_1" function="internal">
        <lane id=":JuctionFrom_Shape346_42_1_St-JuctionFrom_Shape347_51_1_St-JuctionTo_Shape387_60_1_Ed_1_0" index="0" allow="private emergency authority army vip passenger hov taxi bus coach delivery truck trailer motorcycle evehicle custom1 custom2" speed="18.06" length="28.24" shape="3437.53,21.47,-23.42 3439.27,-6.71,-23.42"/>
    </edge>
    <edge id=":JuctionFrom_Shape355_35_1_St-JuctionTo_Shape395_56_1_Ed_0" function="internal">
        <lane id=":JuctionFrom_Shape355_35_1_St-JuctionTo_Shape395_56_1_Ed_0_0" index="0" allow="private emergency authority army vip passenger hov taxi bus coach delivery truck trailer motorcycle evehicle custom1 custom2" speed="18.06" length="0.41" shape="3451.42,88.75,-23.42 3451.42,88.88,-23.42 3451.41,88.96,-23.42 3451.40,89.04,-23.42 3451.36,89.16,-23.42"/>
    </edge>
    <edge id=":JuctionFrom_Shape357_13_1_St-JuctionTo_Shape391_45_1_Ed_0" function="internal">
        <lane id=":JuctionFrom_Shape357_13_1_St-JuctionTo_Shape391_45_1_Ed_0_0" index="0" allow="private emergency authority army vip passenger hov taxi bus coach delivery truck trailer motorcycle evehicle custom1 custom2" speed="18.06" length="0.50" shape="3431.35,123.17,-23.42 3431.34,123.02,-23.42 3431.33,122.92,-23.42 3431.30,122.82,-23.42 3431.25,122.69,-23.42"/>
    </edge>
    <edge id=":JuctionFrom_Shape367_11_1_St-JuctionTo_Shape368_14_1_Ed-JuctionFrom_Shape369_26_1_St_0" function="internal">
        <lane id=":JuctionFrom_Shape367_11_1_St-JuctionTo_Shape368_14_1_Ed-JuctionFrom_Shape369_26_1_St_0_0" index="0" allow="private emergency authority army vip passenger hov taxi bus coach delivery truck trailer motorcycle evehicle custom1 custom2" speed="18.06" length="3.00" shape="3424.08,4.64,-23.42 3427.08,4.77,-23.42"/>
    </edge>
    <edge id=":JuctionFrom_Shape367_11_1_St-JuctionTo_Shape368_14_1_Ed-JuctionFrom_Shape369_26_1_St_1" function="internal">
        <lane id=":JuctionFrom_Shape367_11_1_St-JuctionTo_Shape368_14_1_Ed-JuctionFrom_Shape369_26_1_St_1_0" index="0" allow="private emergency authority army vip passenger hov taxi bus coach delivery truck trailer motorcycle evehicle custom1 custom2" speed="18.06" length="3.00" shape="3424.08,4.64,-23.42 3427.08,4.75,-23.42"/>
    </edge>
    <edge id=":JuctionFrom_Shape386_2_1_St-JuctionTo_Shape341_23_1_Ed_0" function="internal">
        <lane id=":JuctionFrom_Shape386_2_1_St-JuctionTo_Shape341_23_1_Ed_0_0" index="0" allow="private emergency authority army vip passenger hov taxi bus coach delivery truck trailer motorcycle evehicle custom1 custom2" speed="18.06" length="0.29" shape="3442.69,123.17,-23.42 3442.69,122.89,-23.42"/>
    </edge>
    <edge id=":JuctionFrom_Shape392_10_1_St-JuctionTo_Shape369_26_1_Ed-JuctionTo_Shape370_50_1_Ed_0" function="internal">
        <lane id=":JuctionFrom_Shape392_10_1_St-JuctionTo_Shape369_26_1_Ed-JuctionTo_Shape370_50_1_Ed_0_0" index="0" allow="private emergency authority army vip passenger hov taxi bus coach delivery truck trailer motorcycle evehicle custom1 custom2" speed="18.06" length="11.97" shape="3462.95,10.31,-23.42 3462.82,22.28,-23.42"/>
    </edge>
    <edge id=":JuctionFrom_Shape392_10_1_St-JuctionTo_Shape369_26_1_Ed-JuctionTo_Shape370_50_1_Ed_1" function="internal">
        <lane id=":JuctionFrom_Shape392_10_1_St-JuctionTo_Shape369_26_1_Ed-JuctionTo_Shape370_50_1_Ed_1_0" index="0" allow="private emergency authority army vip passenger hov taxi bus coach delivery truck trailer motorcycle evehicle custom1 custom2" speed="15.62" length="12.15" shape="3458.99,10.96,-23.42 3460.66,13.84,-23.42 3461.87,16.36,-23.42 3462.59,19.00,-23.42 3462.82,22.28,-23.42"/>
    </edge>
    <edge id=":JuctionFrom_Shape393_19_1_St-JuctionTo_Shape338_25_1_Ed_0" function="internal">
        <lane id=":JuctionFrom_Shape393_19_1_St-JuctionTo_Shape338_25_1_Ed_0_0" index="0" allow="private emergency authority army vip passenger hov taxi bus coach delivery truck trailer motorcycle evehicle custom1 custom2" speed="18.06" length="0.30" shape="3459.55,20.44,-23.42 3459.55,20.74,-23.42"/>
    </edge>
    <edge id=":JuctionTo_Shape091_5_1_Ed-JuctionFrom_Shape377_28_1_St_0" function="internal">
        <lane id=":JuctionTo_Shape091_5_1_Ed-JuctionFrom_Shape377_28_1_St_0_0" index="0" allow="private emergency authority army vip passenger hov taxi bus coach delivery truck trailer motorcycle evehicle custom1 custom2" speed="18.06" length="0.79" shape="3472.25,114.87,-23.42 3472.02,114.88,-23.42 3471.86,114.91,-23.42 3471.71,114.96,-23.42 3471.50,115.07,-23.42"/>
    </edge>
    <edge id=":JuctionTo_Shape092_6_1_Ed-JuctionFrom_Shape376_15_1_St_0" function="internal">
        <lane id=":JuctionTo_Shape092_6_1_Ed-JuctionFrom_Shape376_15_1_St_0_0" index="0" allow="private emergency authority army vip passenger hov taxi bus coach delivery truck trailer motorcycle evehicle custom1 custom2" speed="18.06" length="0.28" shape="3472.01,111.38,-23.42 3471.73,111.38,-23.42"/>
    </edge>
    <edge id=":JuctionTo_Shape093_3_1_Ed-JuctionFrom_Shape375_52_1_St_0" function="internal">
        <lane id=":JuctionTo_Shape093_3_1_Ed-JuctionFrom_Shape375_52_1_St_0_0" index="0" allow="private emergency authority army vip passenger hov taxi bus coach delivery truck trailer motorcycle evehicle custom1 custom2" speed="18.06" length="0.30" shape="3472.07,107.73,-23.42 3471.77,107.73,-23.42"/>
    </edge>
    <edge id=":JuctionTo_Shape094_4_1_Ed-JuctionFrom_Shape385_53_1_St_0" function="internal">
        <lane id=":JuctionTo_Shape094_4_1_Ed-JuctionFrom_Shape385_53_1_St_0_0" index="0" allow="private emergency authority army vip passenger hov taxi bus coach delivery truck trailer motorcycle evehicle custom1 custom2" speed="18.06" length="0.30" shape="3446.13,123.20,-23.42 3446.13,122.90,-23.42"/>
    </edge>
    <edge id=":JuctionTo_Shape095_7_1_Ed-JuctionFrom_Shape374_12_1_St_0" function="internal">
        <lane id=":JuctionTo_Shape095_7_1_Ed-JuctionFrom_Shape374_12_1_St_0_0" index="0" allow="private emergency authority army vip passenger hov taxi bus coach delivery truck trailer motorcycle evehicle custom1 custom2" speed="18.06" length="0.30" shape="3472.17,103.67,-23.42 3471.87,103.67,-23.42"/>
    </edge>
    <edge id=":JuctionTo_Shape340_22_1_Ed-JuctionTo_Shape461_33_1_Ed-JuctionTo_Shape342_37_1_Ed-JuctionFrom_Shape343_38_1_St_0" function="internal">
        <lane id=":JuctionTo_Shape340_22_1_Ed-JuctionTo_Shape461_33_1_Ed-JuctionTo_Shape342_37_1_Ed-JuctionFrom_Shape343_38_1_St_0_0" index="0" allow="private emergency authority army vip passenger hov taxi bus coach delivery truck trailer motorcycle evehicle custom1 custom2" speed="18.06" length="2.81" shape="3464.39,-1.18,-23.42 3467.19,-1.06,-23.42"/>
    </edge>
    <edge id=":JuctionTo_Shape340_22_1_Ed-JuctionTo_Shape461_33_1_Ed-JuctionTo_Shape342_37_1_Ed-JuctionFrom_Shape343_38_1_St_1" function="internal">
        <lane id=":JuctionTo_Shape340_22_1_Ed-JuctionTo_Shape461_33_1_Ed-JuctionTo_Shape342_37_1_Ed-JuctionFrom_Shape343_38_1_St_1_0" index="0" allow="private emergency authority army vip passenger hov taxi bus coach delivery truck trailer motorcycle evehicle custom1 custom2" speed="18.06" length="2.79" shape="3464.41,-0.96,-23.42 3465.23,-1.04,-23.42 3465.79,-1.08,-23.42 3466.36,-1.09,-23.42 3467.19,-1.06,-23.42"/>
    </edge>
    <edge id=":JuctionTo_Shape340_22_1_Ed-JuctionTo_Shape461_33_1_Ed-JuctionTo_Shape342_37_1_Ed-JuctionFrom_Shape343_38_1_St_2" function="internal">
        <lane id=":JuctionTo_Shape340_22_1_Ed-JuctionTo_Shape461_33_1_Ed-JuctionTo_Shape342_37_1_Ed-JuctionFrom_Shape343_38_1_St_2_0" index="0" allow="private emergency authority army vip passenger hov taxi bus coach delivery truck trailer motorcycle evehicle custom1 custom2" speed="18.06" length="2.79" shape="3464.40,-0.97,-23.42 3465.23,-1.04,-23.42 3465.79,-1.08,-23.42 3466.36,-1.09,-23.42 3467.19,-1.06,-23.42"/>
    </edge>
    <edge id=":JuctionTo_Shape349_41_1_Ed-JuctionFrom_Shape378_44_1_St_0" function="internal">
        <lane id=":JuctionTo_Shape349_41_1_Ed-JuctionFrom_Shape378_44_1_St_0_0" index="0" allow="private emergency authority army vip passenger hov taxi bus coach delivery truck trailer motorcycle evehicle custom1 custom2" speed="18.06" length="0.27" shape="3424.75,8.08,-23.42 3425.01,8.09,-23.42"/>
    </edge>
    <edge id=":JuctionTo_Shape358_9_1_Ed-JuctionFrom_Shape390_34_1_St-JuctionFrom_Shape391_45_1_St_0" function="internal">
        <lane id=":JuctionTo_Shape358_9_1_Ed-JuctionFrom_Shape390_34_1_St-JuctionFrom_Shape391_45_1_St_0_0" index="0" allow="private emergency authority army vip passenger hov taxi bus coach delivery truck trailer motorcycle evehicle custom1 custom2" speed="18.06" length="12.66" shape="3435.14,152.61,-23.42 3434.76,149.27,-23.42 3433.95,146.43,-23.42 3433.06,143.60,-23.42 3432.44,140.27,-23.42"/>
    </edge>
    <edge id=":JuctionTo_Shape358_9_1_Ed-JuctionFrom_Shape390_34_1_St-JuctionFrom_Shape391_45_1_St_1" function="internal">
        <lane id=":JuctionTo_Shape358_9_1_Ed-JuctionFrom_Shape390_34_1_St-JuctionFrom_Shape391_45_1_St_1_0" index="0" allow="private emergency authority army vip passenger hov taxi bus coach delivery truck trailer motorcycle evehicle custom1 custom2" speed="18.06" length="12.58" shape="3435.14,152.61,-23.42 3435.93,140.05,-23.42"/>
    </edge>
    <edge id=":JuctionTo_Shape360_16_1_Ed-JuctionFrom_Shape388_18_1_St-JuctionTo_Shape361_59_1_Ed_0" function="internal">
        <lane id=":JuctionTo_Shape360_16_1_Ed-JuctionFrom_Shape388_18_1_St-JuctionTo_Shape361_59_1_Ed_0_0" index="0" allow="private emergency authority army vip passenger hov taxi bus coach delivery truck trailer motorcycle evehicle custom1 custom2" speed="18.06" length="11.53" shape="3434.98,98.01,-23.42 3434.60,86.48,-23.42"/>
    </edge>
    <edge id=":JuctionTo_Shape360_16_1_Ed-JuctionFrom_Shape388_18_1_St-JuctionTo_Shape361_59_1_Ed_1" function="internal">
        <lane id=":JuctionTo_Shape360_16_1_Ed-JuctionFrom_Shape388_18_1_St-JuctionTo_Shape361_59_1_Ed_1_0" index="0" allow="private emergency authority army vip passenger hov taxi bus coach delivery truck trailer motorcycle evehicle custom1 custom2" speed="11.64" length="11.72" shape="3439.12,96.87,-23.42 3436.97,94.42,-23.42 3435.58,92.19,-23.42 3434.83,89.70,-23.42 3434.60,86.48,-23.42"/>
    </edge>
    <edge id=":JuctionTo_Shape362_27_1_Ed-JuctionTo_Shape373_39_1_Ed-JuctionFrom_Shape387_60_1_St_0" function="internal">
        <lane id=":JuctionTo_Shape362_27_1_Ed-JuctionTo_Shape373_39_1_Ed-JuctionFrom_Shape387_60_1_St_0_0" index="0" allow="private emergency authority army vip passenger hov taxi bus coach delivery truck trailer motorcycle evehicle custom1 custom2" speed="18.06" length="8.26" shape="3437.88,94.59,-23.42 3437.65,86.33,-23.42"/>
    </edge>
    <edge id=":JuctionTo_Shape362_27_1_Ed-JuctionTo_Shape373_39_1_Ed-JuctionFrom_Shape387_60_1_St_1" function="internal">
        <lane id=":JuctionTo_Shape362_27_1_Ed-JuctionTo_Shape373_39_1_Ed-JuctionFrom_Shape387_60_1_St_1_0" index="0" allow="private emergency authority army vip passenger hov taxi bus coach delivery truck trailer motorcycle evehicle custom1 custom2" speed="9.07" length="8.09" shape="3441.81,93.03,-23.42 3439.99,91.20,-23.42 3438.69,89.48,-23.42 3437.91,87.85,-23.42 3437.65,86.33,-23.42"/>
    </edge>
    <edge id=":JuctionTo_Shape364_30_1_Ed-JuctionFrom_Shape373_39_1_St_0" function="internal">
        <lane id=":JuctionTo_Shape364_30_1_Ed-JuctionFrom_Shape373_39_1_St_0_0" index="0" allow="private emergency authority army vip passenger hov taxi bus coach delivery truck trailer motorcycle evehicle custom1 custom2" speed="18.06" length="0.29" shape="3472.21,99.84,-23.42 3471.93,99.84,-23.42"/>
    </edge>
    <edge id=":JuctionTo_Shape367_11_1_Ed-JuctionTo_Shape366_31_1_Ed-JuctionFrom_Shape365_46_1_St_0" function="internal">
        <lane id=":JuctionTo_Shape367_11_1_Ed-JuctionTo_Shape366_31_1_Ed-JuctionFrom_Shape365_46_1_St_0_0" index="0" allow="private emergency authority army vip passenger hov taxi bus coach delivery truck trailer motorcycle evehicle custom1 custom2" speed="18.06" length="15.04" shape="3480.75,6.29,-23.98 3495.78,6.95,-24.05"/>
    </edge>
    <edge id=":JuctionTo_Shape367_11_1_Ed-JuctionTo_Shape366_31_1_Ed-JuctionFrom_Shape365_46_1_St_1" function="internal">
        <lane id=":JuctionTo_Shape367_11_1_Ed-JuctionTo_Shape366_31_1_Ed-JuctionFrom_Shape365_46_1_St_1_0" index="0" allow="private emergency authority army vip passenger hov taxi bus coach delivery truck trailer motorcycle evehicle custom1 custom2" speed="15.20" length="15.28" shape="3481.18,10.61,-23.98 3484.47,8.80,-24.00 3488.13,7.67,-24.02 3491.96,7.09,-24.03 3495.78,6.95,-24.05"/>
    </edge>
    <edge id=":JuctionTo_Shape374_12_1_Ed-JuctionFrom_Shape360_16_1_St-JuctionFrom_Shape352_17_1_St_0" function="internal">
        <lane id=":JuctionTo_Shape374_12_1_Ed-JuctionFrom_Shape360_16_1_St-JuctionFrom_Shape352_17_1_St_0_0" index="0" allow="private emergency authority army vip passenger hov taxi bus coach delivery truck trailer motorcycle evehicle custom1 custom2" speed="18.06" length="19.13" shape="3461.19,103.75,-23.42 3442.06,103.91,-23.42"/>
    </edge>
    <edge id=":JuctionTo_Shape374_12_1_Ed-JuctionFrom_Shape360_16_1_St-JuctionFrom_Shape352_17_1_St_1" function="internal">
        <lane id=":JuctionTo_Shape374_12_1_Ed-JuctionFrom_Shape360_16_1_St-JuctionFrom_Shape352_17_1_St_1_0" index="0" allow="private emergency authority army vip passenger hov taxi bus coach delivery truck trailer motorcycle evehicle custom1 custom2" speed="18.06" length="19.38" shape="3461.19,103.75,-23.42 3456.73,103.50,-23.42 3451.50,102.73,-23.42 3446.41,101.45,-23.42 3442.40,99.67,-23.42"/>
    </edge>
    <edge id=":JuctionTo_Shape377_28_1_Ed-JuctionTo_Shape371_49_1_Ed-JuctionFrom_Shape372_57_1_St_0" function="internal">
        <lane id=":JuctionTo_Shape377_28_1_Ed-JuctionTo_Shape371_49_1_Ed-JuctionFrom_Shape372_57_1_St_0_0" index="0" allow="private emergency authority army vip passenger hov taxi bus coach delivery truck trailer motorcycle evehicle custom1 custom2" speed="8.79" length="10.55" shape="3465.44,118.43,-23.42 3463.58,119.88,-23.42 3462.25,121.88,-23.42 3461.44,124.43,-23.42 3461.16,127.53,-23.42"/>
    </edge>
    <edge id=":JuctionTo_Shape377_28_1_Ed-JuctionTo_Shape371_49_1_Ed-JuctionFrom_Shape372_57_1_St_1" function="internal">
        <lane id=":JuctionTo_Shape377_28_1_Ed-JuctionTo_Shape371_49_1_Ed-JuctionFrom_Shape372_57_1_St_1_0" index="0" allow="private emergency authority army vip passenger hov taxi bus coach delivery truck trailer motorcycle evehicle custom1 custom2" speed="18.06" length="10.18" shape="3461.47,117.36,-23.42 3461.16,127.53,-23.42"/>
    </edge>
    <edge id=":JuctionTo_Shape378_44_1_Ed-JuctionFrom_Shape394_47_1_St-JuctionTo_Shape339_55_1_Ed_0" function="internal">
        <lane id=":JuctionTo_Shape378_44_1_Ed-JuctionFrom_Shape394_47_1_St-JuctionTo_Shape339_55_1_Ed_0_0" index="0" allow="private emergency authority army vip passenger hov taxi bus coach delivery truck trailer motorcycle evehicle custom1 custom2" speed="18.06" length="9.06" shape="3455.46,13.93,-23.42 3455.27,22.99,-23.42"/>
    </edge>
    <edge id=":JuctionTo_Shape378_44_1_Ed-JuctionFrom_Shape394_47_1_St-JuctionTo_Shape339_55_1_Ed_1" function="internal">
        <lane id=":JuctionTo_Shape378_44_1_Ed-JuctionFrom_Shape394_47_1_St-JuctionTo_Shape339_55_1_Ed_1_0" index="0" allow="private emergency authority army vip passenger hov taxi bus coach delivery truck trailer motorcycle evehicle custom1 custom2" speed="8.77" length="9.14" shape="3451.55,15.03,-23.42 3453.19,16.53,-23.42 3454.35,18.35,-23.42 3455.05,20.51,-23.42 3455.27,22.99,-23.42"/>
    </edge>
    <edge id=":JuctionTo_Shape379_32_1_Ed-JuctionFrom_Shape370_50_1_St_0" function="internal">
        <lane id=":JuctionTo_Shape379_32_1_Ed-JuctionFrom_Shape370_50_1_St_0_0" index="0" allow="private emergency authority army vip passenger hov taxi bus coach delivery truck trailer motorcycle evehicle custom1 custom2" speed="18.06" length="0.30" shape="3463.19,-9.59,-23.42 3463.19,-9.29,-23.42"/>
    </edge>
    <edge id=":JuctionTo_Shape380_20_1_Ed-JuctionFrom_Shape338_25_1_St_0" function="internal">
        <lane id=":JuctionTo_Shape380_20_1_Ed-JuctionFrom_Shape338_25_1_St_0_0" index="0" allow="private emergency authority army vip passenger hov taxi bus coach delivery truck trailer motorcycle evehicle custom1 custom2" speed="18.06" length="0.30" shape="3459.75,-9.56,-23.42 3459.75,-9.26,-23.42"/>
    </edge>
    <edge id=":JuctionTo_Shape381_21_1_Ed-JuctionFrom_Shape339_55_1_St_0" function="internal">
        <lane id=":JuctionTo_Shape381_21_1_Ed-JuctionFrom_Shape339_55_1_St_0_0" index="0" allow="private emergency authority army vip passenger hov taxi bus coach delivery truck trailer motorcycle evehicle custom1 custom2" speed="18.06" length="0.30" shape="3456.00,-9.67,-23.42 3456.00,-9.37,-23.42"/>
    </edge>
    <edge id=":JuctionTo_Shape382_29_1_Ed-JuctionFrom_Shape395_56_1_St_0" function="internal">
        <lane id=":JuctionTo_Shape382_29_1_Ed-JuctionFrom_Shape395_56_1_St_0_0" index="0" allow="private emergency authority army vip passenger hov taxi bus coach delivery truck trailer motorcycle evehicle custom1 custom2" speed="18.06" length="0.30" shape="3451.51,-9.72,-23.42 3451.51,-9.42,-23.42"/>
    </edge>
    <edge id=":JuctionTo_Shape384_36_1_Ed-JuctionFrom_Shape342_37_1_St_0" function="internal">
        <lane id=":JuctionTo_Shape384_36_1_Ed-JuctionFrom_Shape342_37_1_St_0_0" index="0" allow="private emergency authority army vip passenger hov taxi bus coach delivery truck trailer motorcycle evehicle custom1 custom2" speed="18.06" length="0.29" shape="3426.80,-2.47,-23.42 3427.10,-2.45,-23.42"/>
    </edge>
    <edge id=":JuctionTo_Shape386_2_1_Ed-JuctionFrom_Shape461_33_1_St_0" function="internal">
        <lane id=":JuctionTo_Shape386_2_1_Ed-JuctionFrom_Shape461_33_1_St_0_0" index="0" allow="private emergency authority army vip passenger hov taxi bus coach delivery truck trailer motorcycle evehicle custom1 custom2" speed="18.06" length="0.10" shape="3441.19,20.16,-23.42 3441.19,20.16,-23.42"/>
    </edge>
    <edge id=":JuctionTo_Shape388_18_1_Ed-JuctionFrom_Shape345_54_1_St_0" function="internal">
        <lane id=":JuctionTo_Shape388_18_1_Ed-JuctionFrom_Shape345_54_1_St_0_0" index="0" allow="private emergency authority army vip passenger hov taxi bus coach delivery truck trailer motorcycle evehicle custom1 custom2" speed="18.06" length="0.24" shape="3434.60,19.85,-23.42 3434.60,19.61,-23.42"/>
    </edge>
    <edge id=":JuctionTo_Shape389_8_1_Ed-JuctionFrom_Shape362_27_1_St_0" function="internal">
        <lane id=":JuctionTo_Shape389_8_1_Ed-JuctionFrom_Shape362_27_1_St_0_0" index="0" allow="private emergency authority army vip passenger hov taxi bus coach delivery truck trailer motorcycle evehicle custom1 custom2" speed="18.06" length="0.25" shape="3439.21,123.08,-23.42 3439.21,122.82,-23.42"/>
    </edge>
    <edge id=":JuctionTo_Shape390_34_1_Ed-JuctionFrom_Shape361_59_1_St_0" function="internal">
        <lane id=":JuctionTo_Shape390_34_1_Ed-JuctionFrom_Shape361_59_1_St_0_0" index="0" allow="private emergency authority army vip passenger hov taxi bus coach delivery truck trailer motorcycle evehicle custom1 custom2" speed="18.06" length="0.24" shape="3435.62,123.05,-23.42 3435.62,122.81,-23.42"/>
    </edge>
    <edge id=":JuctionTo_Shape392_10_1_Ed-JuctionFrom_Shape371_49_1_St_0" function="internal">
        <lane id=":JuctionTo_Shape392_10_1_Ed-JuctionFrom_Shape371_49_1_St_0_0" index="0" allow="private emergency authority army vip passenger hov taxi bus coach delivery truck trailer motorcycle evehicle custom1 custom2" speed="18.06" length="0.30" shape="3462.44,88.77,-23.42 3462.44,89.07,-23.42"/>
    </edge>
    <edge id=":JuctionTo_Shape393_19_1_Ed-JuctionFrom_Shape337_58_1_St_0" function="internal">
        <lane id=":JuctionTo_Shape393_19_1_Ed-JuctionFrom_Shape337_58_1_St_0_0" index="0" allow="private emergency authority army vip passenger hov taxi bus coach delivery truck trailer motorcycle evehicle custom1 custom2" speed="18.06" length="0.30" shape="3459.25,88.80,-23.42 3459.25,89.10,-23.42"/>
    </edge>
    <edge id=":JuctionTo_Shape394_47_1_Ed-JuctionFrom_Shape356_48_1_St_0" function="internal">
        <lane id=":JuctionTo_Shape394_47_1_Ed-JuctionFrom_Shape356_48_1_St_0_0" index="0" allow="private emergency authority army vip passenger hov taxi bus coach delivery truck trailer motorcycle evehicle custom1 custom2" speed="18.06" length="0.10" shape="3455.07,88.88,-23.42 3455.07,88.88,-23.42"/>
    </edge>

    <edge id="edgeId_Shape091_5_1_St" from="JuctionFrom_Shape091_5_1_St" to="JuctionTo_Shape091_5_1_Ed-JuctionFrom_Shape377_28_1_St" priority="14" type="highway.motorway" spreadType="center" shape="3519.22,114.59,-23.70 3514.22,114.61,-23.65 3509.22,114.64,-23.61 3504.22,114.65,-23.56 3499.22,114.64,-23.51 3494.22,114.62,-23.47 3489.22,114.64,-23.43 3484.22,114.69,-23.42 3471.85,114.88,-23.42">
        <lane id="edgeId_Shape091_5_1_St_0" index="0" allow="private emergency authority army vip passenger hov taxi bus coach delivery truck trailer motorcycle evehicle custom1 custom2" speed="18.06" length="46.97" shape="3519.22,114.59,-23.70 3514.22,114.61,-23.65 3509.22,114.64,-23.61 3504.22,114.65,-23.56 3499.22,114.64,-23.51 3494.22,114.62,-23.47 3489.22,114.64,-23.43 3484.22,114.69,-23.42 3472.25,114.87,-23.42"/>
    </edge>
    <edge id="edgeId_Shape092_6_1_St" from="JuctionFrom_Shape092_6_1_St" to="JuctionTo_Shape092_6_1_Ed-JuctionFrom_Shape376_15_1_St" priority="14" type="highway.motorway" spreadType="center" shape="3519.24,110.69,-23.72 3514.24,110.77,-23.67 3509.24,110.84,-23.63 3504.24,110.92,-23.55 3499.24,111.00,-23.51 3494.24,111.07,-23.46 3489.24,111.15,-23.43 3484.24,111.23,-23.42 3479.24,111.30,-23.42 3471.87,111.38,-23.42">
        <lane id="edgeId_Shape092_6_1_St_0" index="0" allow="private emergency authority army vip passenger hov taxi bus coach delivery truck trailer motorcycle evehicle custom1 custom2" speed="18.06" length="47.23" shape="3519.24,110.69,-23.72 3514.24,110.77,-23.67 3509.24,110.84,-23.63 3504.24,110.92,-23.55 3499.24,111.00,-23.51 3494.24,111.07,-23.46 3489.24,111.15,-23.43 3484.24,111.23,-23.42 3479.24,111.30,-23.42 3472.01,111.38,-23.42"/>
    </edge>
    <edge id="edgeId_Shape093_3_1_St" from="JuctionFrom_Shape093_3_1_St" to="JuctionTo_Shape093_3_1_Ed-JuctionFrom_Shape375_52_1_St" priority="14" type="highway.motorway" spreadType="center" shape="3519.24,107.22,-23.74 3514.24,107.30,-23.69 3509.24,107.39,-23.65 3504.24,107.48,-23.55 3499.24,107.57,-23.50 3494.24,107.65,-23.46 3489.24,107.72,-23.43 3484.24,107.72,-23.42 3479.25,107.72,-23.42 3471.92,107.73,-23.42">
        <lane id="edgeId_Shape093_3_1_St_0" index="0" allow="private emergency authority army vip passenger hov taxi bus coach delivery truck trailer motorcycle evehicle custom1 custom2" speed="18.06" length="47.18" shape="3519.24,107.22,-23.74 3514.24,107.30,-23.69 3509.24,107.39,-23.65 3504.24,107.48,-23.55 3499.24,107.57,-23.50 3494.24,107.65,-23.46 3489.24,107.72,-23.43 3484.24,107.72,-23.42 3479.25,107.72,-23.42 3472.07,107.73,-23.42"/>
    </edge>
    <edge id="edgeId_Shape094_4_1_St" from="JuctionFrom_Shape094_4_1_St" to="JuctionTo_Shape094_4_1_Ed-JuctionFrom_Shape385_53_1_St" priority="14" type="highway.motorway" spreadType="center" shape="3446.90,156.72,-23.42 3446.75,152.70,-23.42 3446.59,147.71,-23.42 3446.50,142.71,-23.42 3446.45,137.71,-23.42 3446.36,132.71,-23.42 3446.25,127.71,-23.42 3446.13,123.05,-23.42">
        <lane id="edgeId_Shape094_4_1_St_0" index="0" allow="private emergency authority army vip passenger hov taxi bus coach delivery truck trailer motorcycle evehicle custom1 custom2" speed="18.06" length="33.53" shape="3446.90,156.72,-23.42 3446.75,152.70,-23.42 3446.59,147.71,-23.42 3446.50,142.71,-23.42 3446.45,137.71,-23.42 3446.36,132.71,-23.42 3446.25,127.71,-23.42 3446.13,123.20,-23.42"/>
    </edge>
    <edge id="edgeId_Shape095_7_1_St" from="JuctionFrom_Shape095_7_1_St" to="JuctionTo_Shape095_7_1_Ed-JuctionFrom_Shape374_12_1_St" priority="14" type="highway.motorway" spreadType="center" shape="3520.01,103.29,-23.77 3515.01,103.34,-23.72 3510.01,103.39,-23.67 3505.01,103.43,-23.59 3500.01,103.48,-23.51 3495.01,103.52,-23.47 3490.01,103.57,-23.44 3485.01,103.61,-23.42 3480.01,103.64,-23.42 3472.02,103.67,-23.42">
        <lane id="edgeId_Shape095_7_1_St_0" index="0" allow="private emergency authority army vip passenger hov taxi bus coach delivery truck trailer motorcycle evehicle custom1 custom2" speed="18.06" length="47.84" shape="3520.01,103.29,-23.77 3515.01,103.34,-23.72 3510.01,103.39,-23.67 3505.01,103.43,-23.59 3500.01,103.48,-23.51 3495.01,103.52,-23.47 3490.01,103.57,-23.44 3485.01,103.61,-23.42 3480.01,103.64,-23.42 3472.17,103.67,-23.42"/>
    </edge>
    <edge id="edgeId_Shape336_24_1_St" from="JuctionFrom_Shape336_24_1_St-JuctionFrom_Shape384_36_1_St" to="JuctionTo_Shape336_24_1_Ed" priority="14" type="highway.motorway" spreadType="center" shape="3392.42,-5.46,-23.53 3397.42,-5.70,-23.49 3402.41,-5.95,-23.46 3407.40,-6.20,-23.42 3412.40,-6.35,-23.41 3417.40,-6.38,-23.42 3422.33,-7.11,-23.42 3426.71,-9.46,-23.42 3429.60,-13.45,-23.42 3431.00,-18.23,-23.42 3431.50,-23.20,-23.42 3431.57,-28.19,-23.42 3431.38,-33.19,-23.42 3431.41,-34.29,-23.42">
        <lane id="edgeId_Shape336_24_1_St_0" index="0" allow="private emergency authority army vip passenger hov taxi bus coach delivery truck trailer motorcycle evehicle custom1 custom2" speed="18.06" length="40.03" shape="3413.32,-6.36,-23.41 3417.40,-6.38,-23.42 3422.33,-7.11,-23.42 3426.71,-9.46,-23.42 3429.60,-13.45,-23.42 3431.00,-18.23,-23.42 3431.50,-23.20,-23.42 3431.57,-28.19,-23.42 3431.38,-33.19,-23.42 3431.41,-34.29,-23.42"/>
    </edge>
    <edge id="edgeId_Shape337_58_1_St" from="JuctionTo_Shape393_19_1_Ed-JuctionFrom_Shape337_58_1_St" to="JuctionTo_Shape337_58_1_Ed" priority="14" type="highway.motorway" spreadType="center" shape="3459.25,88.95,-23.42 3459.16,95.58,-23.42 3459.07,100.58,-23.42 3458.98,105.58,-23.42 3458.89,110.58,-23.42 3458.80,115.58,-23.42 3458.71,120.58,-23.42 3458.61,125.58,-23.42 3458.52,130.58,-23.42 3458.43,135.58,-23.42 3458.34,140.58,-23.42 3458.25,145.57,-23.42 3458.15,150.57,-23.42 3458.04,156.40,-23.42">
        <lane id="edgeId_Shape337_58_1_St_0" index="0" allow="private emergency authority army vip passenger hov taxi bus coach delivery truck trailer motorcycle evehicle custom1 custom2" speed="18.06" length="67.31" shape="3459.25,89.10,-23.42 3459.16,95.58,-23.42 3459.07,100.58,-23.42 3458.98,105.58,-23.42 3458.89,110.58,-23.42 3458.80,115.58,-23.42 3458.71,120.58,-23.42 3458.61,125.58,-23.42 3458.52,130.58,-23.42 3458.43,135.58,-23.42 3458.34,140.58,-23.42 3458.25,145.57,-23.42 3458.15,150.57,-23.42 3458.04,156.40,-23.42"/>
    </edge>