<?xml version="1.0" encoding="UTF-8"?>

<!-- generated on 2022-06-03 13:03:43 by Eclipse SUMO GUI Version 1.13.0
-->

<configuration xmlns:xsi="http://www.w3.org/2001/XMLSchema-instance" xsi:noNamespaceSchemaLocation="http://sumo.dlr.de/xsd/sumoConfiguration.xsd">

    <input>
        <net-file value="../../../Program%20Files%20(x86)/Eclipse/Sumo/HelloWorld.net.xml"/>
        <route-files value="../../../Program%20Files%20(x86)/Eclipse/Sumo/HelloWorld.rou.xml"/>
    </input>

</configuration>
