<?xml version="1.0" encoding="UTF-8"?>

<!-- generated on 2022-06-09 11:01:56 by Eclipse SUMO netedit Version 1.13.0
<configuration xmlns:xsi="http://www.w3.org/2001/XMLSchema-instance" xsi:noNamespaceSchemaLocation="http://sumo.dlr.de/xsd/netconvertConfiguration.xsd">

    <input>
        <sumo-net-file value="D:\@Tll_Training\SUMO_Projects\DriveInCircle\driveInCircle.net.xml"/>
    </input>

    <output>
        <output-file value="D:\@Tll_Training\SUMO_Projects\DriveInCircle\driveInCircle.net.xml"/>
    </output>

    <processing>
        <geometry.min-radius.fix.railways value="false"/>
        <geometry.max-grade.fix value="false"/>
        <offset.disable-normalization value="true"/>
        <lefthand value="false"/>
    </processing>

    <junctions>
        <no-turnarounds value="true"/>
        <junctions.corner-detail value="5"/>
        <junctions.limit-turn-speed value="5.5"/>
        <rectangular-lane-cut value="false"/>
    </junctions>

    <pedestrian>
        <walkingareas value="false"/>
    </pedestrian>

    <netedit>
        <route-files value="D:\@Tll_Training\SUMO_Projects\DriveInCircle\Circle.rou.xml"/>
    </netedit>

    <report>
        <aggregate-warnings value="5"/>
    </report>

</configuration>
-->

<net version="1.9" junctionCornerDetail="5" limitTurnSpeed="5.50" xmlns:xsi="http://www.w3.org/2001/XMLSchema-instance" xsi:noNamespaceSchemaLocation="http://sumo.dlr.de/xsd/net_file.xsd">

    <location netOffset="0.00,0.00" convBoundary="-376.25,-18.32,-101.68,199.59" origBoundary="-10000000000.00,-10000000000.00,10000000000.00,10000000000.00" projParameter="!"/>

    <edge id=":J3_0" function="internal">
        <lane id=":J3_0_0" index="0" speed="4.30" length="1.16" shape="-276.97,197.60 -276.69,197.78 -276.46,197.87 -276.22,197.89 -275.89,197.86"/>
    </edge>
    <edge id=":J4_0" function="internal">
        <lane id=":J4_0_0" index="0" speed="4.10" length="1.45" shape="-154.85,183.37 -154.48,183.28 -154.16,183.13 -153.89,182.91 -153.67,182.61"/>
    </edge>
    <edge id=":J5_0" function="internal">
        <lane id=":J5_0_0" index="0" speed="3.99" length="1.80" shape="-104.09,101.10 -103.89,100.67 -103.83,100.25 -103.90,99.82 -104.11,99.40"/>
    </edge>
    <edge id=":J6_0" function="internal">
        <lane id=":J6_0_0" index="0" speed="4.30" length="1.16" shape="-157.30,16.67 -157.49,16.39 -157.66,16.22 -157.87,16.10 -158.20,16.00"/>
    </edge>
    <edge id=":J7_0" function="internal">
        <lane id=":J7_0_0" index="0" speed="4.31" length="1.15" shape="-268.36,-16.45 -268.69,-16.54 -268.92,-16.56 -269.15,-16.51 -269.46,-16.38"/>
    </edge>
    <edge id=":J8_0" function="internal">
        <lane id=":J8_0_0" index="0" speed="3.97" length="1.93" shape="-373.60,30.19 -374.03,30.45 -374.34,30.80 -374.51,31.22 -374.54,31.73"/>
    </edge>
    <edge id=":J9_0" function="internal">
        <lane id=":J9_0_0" index="0" speed="4.08" length="1.49" shape="-369.50,134.28 -369.44,134.66 -369.31,134.99 -369.09,135.28 -368.80,135.53"/>
    </edge>

    <edge id="E1" from="J3" to="J4" priority="-1">
        <lane id="E1_0" index="0" speed="13.89" length="121.91" shape="-275.89,197.86 -154.85,183.37"/>
    </edge>
    <edge id="E2" from="J4" to="J5" priority="-1">
        <lane id="E2_0" index="0" speed="13.89" length="95.41" shape="-153.67,182.61 -104.09,101.10"/>
    </edge>
    <edge id="E3" from="J5" to="J6" priority="-1">
        <lane id="E3_0" index="0" speed="13.89" length="98.36" shape="-104.11,99.40 -157.30,16.67"/>
    </edge>
    <edge id="E4" from="J6" to="J7" priority="-1">
        <lane id="E4_0" index="0" speed="13.89" length="114.84" shape="-158.20,16.00 -268.36,-16.45"/>
    </edge>
    <edge id="E5" from="J7" to="J8" priority="-1">
        <lane id="E5_0" index="0" speed="13.89" length="114.07" shape="-269.46,-16.38 -373.60,30.19"/>
    </edge>
    <edge id="E6" from="J8" to="J9" priority="-1">
        <lane id="E6_0" index="0" speed="13.89" length="102.68" shape="-374.54,31.73 -369.50,134.28"/>
    </edge>
    <edge id="E7" from="J9" to="J3" priority="-1">
        <lane id="E7_0" index="0" speed="13.89" length="110.83" shape="-368.80,135.53 -276.97,197.60"/>
    </edge>

    <junction id="J3" type="priority" x="-276.88" y="199.59" incLanes="E7_0" intLanes=":J3_0_0" shape="-275.70,199.45 -276.08,196.27 -277.87,198.92 -277.14,199.37 -276.85,199.47 -276.55,199.51 -276.18,199.50">
        <request index="0" response="0" foes="0" cont="0"/>
    </junction>
    <junction id="J4" type="priority" x="-153.11" y="184.77" incLanes="E1_0" intLanes=":J4_0_0" shape="-152.30,183.44 -155.04,181.78 -154.65,184.95 -153.71,184.70 -153.29,184.48 -152.92,184.20 -152.59,183.85">
        <request index="0" response="0" foes="0" cont="0"/>
    </junction>
    <junction id="J5" type="priority" x="-101.68" y="100.22" incLanes="E2_0" intLanes=":J5_0_0" shape="-102.76,98.54 -105.45,100.27 -102.72,101.93 -102.26,100.79 -102.21,100.23 -102.28,99.66 -102.46,99.10">
        <request index="0" response="0" foes="0" cont="0"/>
    </junction>
    <junction id="J6" type="priority" x="-156.60" y="14.80" incLanes="E3_0" intLanes=":J6_0_0" shape="-158.65,17.53 -155.96,15.80 -156.45,15.11 -156.67,14.90 -156.94,14.74 -157.28,14.61 -157.74,14.46">
        <request index="0" response="0" foes="0" cont="0"/>
    </junction>
    <junction id="J7" type="priority" x="-269.04" y="-18.32" incLanes="E4_0" intLanes=":J7_0_0" shape="-268.81,-14.92 -267.91,-17.99 -268.73,-18.19 -269.03,-18.20 -269.33,-18.15 -269.68,-18.03 -270.12,-17.84">
        <request index="0" response="0" foes="0" cont="0"/>
    </junction>
    <junction id="J8" type="priority" x="-376.25" y="29.62" incLanes="E5_0" intLanes=":J8_0_0" shape="-376.14,31.81 -372.95,31.65 -374.25,28.73 -375.35,29.47 -375.72,29.94 -375.98,30.49 -376.12,31.11">
        <request index="0" response="0" foes="0" cont="0"/>
    </junction>
    <junction id="J9" type="priority" x="-371.02" y="135.96" incLanes="E6_0" intLanes=":J9_0_0" shape="-369.69,136.86 -367.90,134.20 -371.10,134.36 -370.91,135.35 -370.71,135.78 -370.44,136.18 -370.10,136.54">
        <request index="0" response="0" foes="0" cont="0"/>
    </junction>

    <connection from="E1" to="E2" fromLane="0" toLane="0" via=":J4_0_0" dir="r" state="M"/>
    <connection from="E2" to="E3" fromLane="0" toLane="0" via=":J5_0_0" dir="r" state="M"/>
    <connection from="E3" to="E4" fromLane="0" toLane="0" via=":J6_0_0" dir="s" state="M"/>
    <connection from="E4" to="E5" fromLane="0" toLane="0" via=":J7_0_0" dir="s" state="M"/>
    <connection from="E5" to="E6" fromLane="0" toLane="0" via=":J8_0_0" dir="r" state="M"/>
    <connection from="E6" to="E7" fromLane="0" toLane="0" via=":J9_0_0" dir="r" state="M"/>
    <connection from="E7" to="E1" fromLane="0" toLane="0" via=":J3_0_0" dir="s" state="M"/>

    <connection from=":J3_0" to="E1" fromLane="0" toLane="0" dir="s" state="M"/>
    <connection from=":J4_0" to="E2" fromLane="0" toLane="0" dir="r" state="M"/>
    <connection from=":J5_0" to="E3" fromLane="0" toLane="0" dir="r" state="M"/>
    <connection from=":J6_0" to="E4" fromLane="0" toLane="0" dir="s" state="M"/>
    <connection from=":J7_0" to="E5" fromLane="0" toLane="0" dir="s" state="M"/>
    <connection from=":J8_0" to="E6" fromLane="0" toLane="0" dir="r" state="M"/>
    <connection from=":J9_0" to="E7" fromLane="0" toLane="0" dir="r" state="M"/>

</net>
