<?xml version="1.0" encoding="UTF-8"?>

<!-- generated on 2022-06-14 14:41:05 by Eclipse SUMO netedit Version 1.13.0
-->

<routes xmlns:xsi="http://www.w3.org/2001/XMLSchema-instance" xsi:noNamespaceSchemaLocation="http://sumo.dlr.de/xsd/routes_file.xsd">
    <!-- Vehicles, persons and containers (sorted by depart) -->
    <trip id="t_0" depart="0.00" from="E1" to="E2"/>
</routes>
