<?xml version="1.0" encoding="UTF-8"?>

<!-- generated on 2022-06-03 15:38:38 by Eclipse SUMO netedit Version 1.13.0
-->

<routes xmlns:xsi="http://www.w3.org/2001/XMLSchema-instance" xsi:noNamespaceSchemaLocation="http://sumo.dlr.de/xsd/routes_file.xsd">
    <!-- Routes -->
    <route id="r_0" edges="E0 E1 E2 E3 E4 E5 E6 E7 E8 E9 E10"/>
    <!-- Vehicles, persons and containers (sorted by depart) -->
    <trip id="t_0" depart="0.00" from="E0" to="E0"/>
</routes>
