<?xml version="1.0" encoding="UTF-8"?>

<!-- generated on 2022-06-03 15:39:37 by Eclipse SUMO netedit Version 1.13.0
<configuration xmlns:xsi="http://www.w3.org/2001/XMLSchema-instance" xsi:noNamespaceSchemaLocation="http://sumo.dlr.de/xsd/netconvertConfiguration.xsd">

    <output>
        <output-file value="C:\Program%20Files%20(x86)\Eclipse\Sumo\Akrima.net.xml"/>
    </output>

    <processing>
        <offset.disable-normalization value="true"/>
    </processing>

    <junctions>
        <no-turnarounds value="true"/>
    </junctions>

    <netedit>
        <route-files value="C:\Program%20Files%20(x86)\Eclipse\Sumo\Akrima.rou.xml"/>
    </netedit>

    <report>
        <aggregate-warnings value="5"/>
    </report>

</configuration>
-->

<net version="1.9" junctionCornerDetail="5" limitTurnSpeed="5.50" xmlns:xsi="http://www.w3.org/2001/XMLSchema-instance" xsi:noNamespaceSchemaLocation="http://sumo.dlr.de/xsd/net_file.xsd">

    <location netOffset="0.00,0.00" convBoundary="0.00,-100.00,600.00,300.00" origBoundary="10000000000.00,10000000000.00,-10000000000.00,-10000000000.00" projParameter="!"/>

    <edge id=":J0_0" function="internal">
        <lane id=":J0_0_0" index="0" speed="3.90" length="2.58" shape="1.60,296.80 1.70,297.50 2.00,298.00 2.50,298.30 3.20,298.40"/>
    </edge>
    <edge id=":J1_0" function="internal">
        <lane id=":J1_0_0" index="0" speed="4.20" length="1.26" shape="298.67,298.40 298.99,298.37 299.29,298.28 299.56,298.14 299.81,297.93"/>
    </edge>
    <edge id=":J10_0" function="internal">
        <lane id=":J10_0_0" index="0" speed="3.90" length="2.58" shape="3.20,101.60 2.50,101.70 2.00,102.00 1.70,102.50 1.60,103.20"/>
    </edge>
    <edge id=":J2_0" function="internal">
        <lane id=":J2_0_0" index="0" speed="4.20" length="1.26" shape="398.87,198.87 399.12,198.66 399.39,198.52 399.68,198.43 400.00,198.40"/>
    </edge>
    <edge id=":J3_0" function="internal">
        <lane id=":J3_0_0" index="0" speed="4.20" length="1.26" shape="498.67,198.40 498.99,198.37 499.29,198.28 499.56,198.14 499.81,197.93"/>
    </edge>
    <edge id=":J4_0" function="internal">
        <lane id=":J4_0_0" index="0" speed="4.22" length="1.28" shape="597.93,99.81 598.19,99.53 598.33,99.31 598.39,99.05 598.40,98.67"/>
    </edge>
    <edge id=":J5_0" function="internal">
        <lane id=":J5_0_0" index="0" speed="4.12" length="4.78" shape="598.40,-92.27 598.23,-93.79 597.72,-94.49 596.86,-94.36 595.67,-93.41"/>
    </edge>
    <edge id=":J6_0" function="internal">
        <lane id=":J6_0_0" index="0" speed="3.90" length="2.58" shape="501.13,1.13 500.57,1.56 500.00,1.70 499.43,1.56 498.87,1.13"/>
    </edge>
    <edge id=":J7_0" function="internal">
        <lane id=":J7_0_0" index="0" speed="4.20" length="1.26" shape="399.81,-97.93 399.56,-98.14 399.29,-98.28 398.99,-98.37 398.67,-98.40"/>
    </edge>
    <edge id=":J8_0" function="internal">
        <lane id=":J8_0_0" index="0" speed="4.12" length="4.78" shape="7.73,-98.40 6.21,-98.23 5.51,-97.72 5.64,-96.86 6.59,-95.67"/>
    </edge>
    <edge id=":J9_0" function="internal">
        <lane id=":J9_0_0" index="0" speed="4.12" length="4.78" shape="201.13,98.87 202.08,100.06 202.21,100.92 201.52,101.43 200.00,101.60"/>
    </edge>

    <edge id="E0" from="J0" to="J1" priority="-1">
        <lane id="E0_0" index="0" speed="13.89" length="295.47" shape="3.20,298.40 298.67,298.40"/>
    </edge>
    <edge id="E1" from="J1" to="J2" priority="-1">
        <lane id="E1_0" index="0" speed="13.89" length="140.10" shape="299.81,297.93 398.87,198.87"/>
    </edge>
    <edge id="E10" from="J10" to="J0" priority="-1">
        <lane id="E10_0" index="0" speed="13.89" length="193.60" shape="1.60,103.20 1.60,296.80"/>
    </edge>
    <edge id="E2" from="J2" to="J3" priority="-1">
        <lane id="E2_0" index="0" speed="13.89" length="98.67" shape="400.00,198.40 498.67,198.40"/>
    </edge>
    <edge id="E3" from="J3" to="J4" priority="-1">
        <lane id="E3_0" index="0" speed="13.89" length="138.77" shape="499.81,197.93 597.93,99.81"/>
    </edge>
    <edge id="E4" from="J4" to="J5" priority="-1">
        <lane id="E4_0" index="0" speed="13.89" length="190.95" shape="598.40,98.67 598.40,-92.27"/>
    </edge>
    <edge id="E5" from="J5" to="J6" priority="-1">
        <lane id="E5_0" index="0" speed="13.89" length="133.70" shape="595.67,-93.41 501.13,1.13"/>
    </edge>
    <edge id="E6" from="J6" to="J7" priority="-1">
        <lane id="E6_0" index="0" speed="13.89" length="140.10" shape="498.87,1.13 399.81,-97.93"/>
    </edge>
    <edge id="E7" from="J7" to="J8" priority="-1">
        <lane id="E7_0" index="0" speed="13.89" length="390.95" shape="398.67,-98.40 7.73,-98.40"/>
    </edge>
    <edge id="E8" from="J8" to="J9" priority="-1">
        <lane id="E8_0" index="0" speed="13.89" length="275.12" shape="6.59,-95.67 201.13,98.87"/>
    </edge>
    <edge id="E9" from="J9" to="J10" priority="-1">
        <lane id="E9_0" index="0" speed="13.89" length="196.80" shape="200.00,101.60 3.20,101.60"/>
    </edge>

    <junction id="J0" type="priority" x="0.00" y="300.00" incLanes="E10_0" intLanes=":J0_0_0" shape="3.20,300.00 3.20,296.80 0.00,296.80 0.36,298.58 0.80,299.20 1.42,299.64 2.22,299.91">
        <request index="0" response="0" foes="0" cont="0"/>
    </junction>
    <junction id="J1" type="priority" x="300.00" y="300.00" incLanes="E0_0" intLanes=":J1_0_0" shape="300.94,299.06 298.67,296.80 298.67,300.00 299.52,299.90 299.90,299.77 300.27,299.58 300.61,299.35">
        <request index="0" response="0" foes="0" cont="0"/>
    </junction>
    <junction id="J10" type="priority" x="0.00" y="100.00" incLanes="E9_0" intLanes=":J10_0_0" shape="0.00,103.20 3.20,103.20 3.20,100.00 1.42,100.36 0.80,100.80 0.36,101.42 0.09,102.22">
        <request index="0" response="0" foes="0" cont="0"/>
    </junction>
    <junction id="J2" type="priority" x="400.00" y="200.00" incLanes="E1_0" intLanes=":J2_0_0" shape="400.00,200.00 400.00,196.80 399.16,196.90 398.77,197.03 398.41,197.22 398.06,197.45 397.74,197.74">
        <request index="0" response="0" foes="0" cont="0"/>
    </junction>
    <junction id="J3" type="priority" x="500.00" y="200.00" incLanes="E2_0" intLanes=":J3_0_0" shape="500.94,199.06 498.67,196.80 498.67,200.00 499.52,199.90 499.90,199.77 500.27,199.58 500.61,199.35">
        <request index="0" response="0" foes="0" cont="0"/>
    </junction>
    <junction id="J4" type="priority" x="600.00" y="100.00" incLanes="E3_0" intLanes=":J4_0_0" shape="600.00,98.67 596.80,98.67 599.06,100.94 599.58,100.27 599.77,99.90 599.90,99.52 599.97,99.11">
        <request index="0" response="0" foes="0" cont="0"/>
    </junction>
    <junction id="J5" type="priority" x="600.00" y="-100.00" incLanes="E4_0" intLanes=":J5_0_0" shape="596.80,-92.27 600.00,-92.27 599.85,-94.48 599.39,-95.96 598.63,-96.70 597.57,-96.71 596.21,-95.99 594.54,-94.54">
        <request index="0" response="0" foes="0" cont="0"/>
    </junction>
    <junction id="J6" type="priority" x="500.00" y="0.00" incLanes="E5_0" intLanes=":J6_0_0" shape="502.26,2.26 500.00,0.00 497.74,2.26 499.25,3.27 500.00,3.39 500.75,3.27 501.51,2.89">
        <request index="0" response="0" foes="0" cont="0"/>
    </junction>
    <junction id="J7" type="priority" x="400.00" y="-100.00" incLanes="E6_0" intLanes=":J7_0_0" shape="398.67,-96.80 400.94,-99.06 400.27,-99.58 399.90,-99.77 399.52,-99.90 399.11,-99.97 398.67,-100.00">
        <request index="0" response="0" foes="0" cont="0"/>
    </junction>
    <junction id="J8" type="priority" x="0.00" y="-100.00" incLanes="E7_0" intLanes=":J8_0_0" shape="5.46,-94.54 7.73,-96.80 7.73,-100.00 5.52,-99.85 4.04,-99.39 3.30,-98.63 3.29,-97.57 4.01,-96.21">
        <request index="0" response="0" foes="0" cont="0"/>
    </junction>
    <junction id="J9" type="priority" x="200.00" y="100.00" incLanes="E8_0" intLanes=":J9_0_0" shape="202.26,97.74 200.00,100.00 200.00,103.20 202.21,103.05 203.68,102.59 204.43,101.83 204.44,100.77 203.72,99.41">
        <request index="0" response="0" foes="0" cont="0"/>
    </junction>

    <connection from="E0" to="E1" fromLane="0" toLane="0" via=":J1_0_0" dir="r" state="M"/>
    <connection from="E1" to="E2" fromLane="0" toLane="0" via=":J2_0_0" dir="l" state="M"/>
    <connection from="E10" to="E0" fromLane="0" toLane="0" via=":J0_0_0" dir="r" state="M"/>
    <connection from="E2" to="E3" fromLane="0" toLane="0" via=":J3_0_0" dir="r" state="M"/>
    <connection from="E3" to="E4" fromLane="0" toLane="0" via=":J4_0_0" dir="r" state="M"/>
    <connection from="E4" to="E5" fromLane="0" toLane="0" via=":J5_0_0" dir="r" state="M"/>
    <connection from="E5" to="E6" fromLane="0" toLane="0" via=":J6_0_0" dir="l" state="M"/>
    <connection from="E6" to="E7" fromLane="0" toLane="0" via=":J7_0_0" dir="r" state="M"/>
    <connection from="E7" to="E8" fromLane="0" toLane="0" via=":J8_0_0" dir="r" state="M"/>
    <connection from="E8" to="E9" fromLane="0" toLane="0" via=":J9_0_0" dir="l" state="M"/>
    <connection from="E9" to="E10" fromLane="0" toLane="0" via=":J10_0_0" dir="r" state="M"/>

    <connection from=":J0_0" to="E0" fromLane="0" toLane="0" dir="r" state="M"/>
    <connection from=":J1_0" to="E1" fromLane="0" toLane="0" dir="r" state="M"/>
    <connection from=":J10_0" to="E10" fromLane="0" toLane="0" dir="r" state="M"/>
    <connection from=":J2_0" to="E2" fromLane="0" toLane="0" dir="l" state="M"/>
    <connection from=":J3_0" to="E3" fromLane="0" toLane="0" dir="r" state="M"/>
    <connection from=":J4_0" to="E4" fromLane="0" toLane="0" dir="r" state="M"/>
    <connection from=":J5_0" to="E5" fromLane="0" toLane="0" dir="r" state="M"/>
    <connection from=":J6_0" to="E6" fromLane="0" toLane="0" dir="l" state="M"/>
    <connection from=":J7_0" to="E7" fromLane="0" toLane="0" dir="r" state="M"/>
    <connection from=":J8_0" to="E8" fromLane="0" toLane="0" dir="r" state="M"/>
    <connection from=":J9_0" to="E9" fromLane="0" toLane="0" dir="l" state="M"/>

</net>
