<?xml version="1.0" encoding="UTF-8"?>

<!-- generated on 2022-06-09 14:53:02 by Eclipse SUMO netedit Version 1.13.0
-->

<routes xmlns:xsi="http://www.w3.org/2001/XMLSchema-instance" xsi:noNamespaceSchemaLocation="http://sumo.dlr.de/xsd/routes_file.xsd">
    <!-- Vehicles, persons and containers (sorted by depart) -->
    <trip id="t_0" depart="0.00" from="E0" to="E0"/>
    <trip id="t_1" depart="0.00" from="E1" to="E1"/>
    <trip id="t_2" depart="0.00" departLane="1" departPos="0.32" departPosLat="left" arrivalLane="1" arrivalPos="0.00" arrivalPosLat="left" from="E2" to="E2"/>
    <trip id="t_3" depart="0.00" departLane="0" departPos="7.60" departPosLat="left" arrivalLane="0" arrivalPos="0.00" arrivalPosLat="left" from="E2" to="E2"/>
</routes>
