<?xml version="1.0" encoding="UTF-8"?>

<!-- generated on 2022-06-09 12:07:54 by Eclipse SUMO netedit Version 1.13.0
-->

<routes xmlns:xsi="http://www.w3.org/2001/XMLSchema-instance" xsi:noNamespaceSchemaLocation="http://sumo.dlr.de/xsd/routes_file.xsd">
    <!-- Vehicles, persons and containers (sorted by depart) -->
    <trip id="t_0" depart="0.00" departLane="0" from="E0" to="E4" via="E1 E2 E3 E4 E0 E1 E2 E3"/>
    <trip id="t_1" depart="0.00" departLane="1" from="E0" to="E4" via="E1 E2 E3 E4 E0 E1 E2 E3"/>
    <trip id="t_2" depart="0.00" departLane="2" from="E0" to="E0" via="E1 E2 E3 E4 E0 E1 E2 E3 E4"/>
    <trip id="t_3" depart="0.00" departLane="0" from="E5" to="E0" via="E1 E2 E3 E4 E0 E1 E2 E3 E4"/>
    <trip id="t_4" depart="0.00" departLane="1" from="E5" to="E0" via="E1 E2 E3 E4 E0 E1 E2 E3 E4"/>
    <trip id="t_5" depart="0.00" departLane="2" from="E5" to="E0" via="E1 E2 E3 E4 E0 E1 E2 E3 E4"/>
    <trip id="t_6" depart="0.00" departLane="0" from="E6" to="E0" via="E1 E2 E3 E4 E0 E1 E2 E3 E4"/>
    <trip id="t_7" depart="0.00" departLane="1" from="E6" to="E0" via="E1 E2 E3 E4 E0 E1 E2 E3 E4"/>
</routes>
