<?xml version="1.0" encoding="UTF-8"?>

<!-- generated on 2022-06-08 17:38:03 by Eclipse SUMO netedit Version 1.13.0
-->

<routes xmlns:xsi="http://www.w3.org/2001/XMLSchema-instance" xsi:noNamespaceSchemaLocation="http://sumo.dlr.de/xsd/routes_file.xsd">
    <!-- Routes -->
    <route id="r_0" edges="E0 E1 E2 E3 E4 E0 E1 E2 E3 E4 E0 E1 E2 E3 E4"/>
    <!-- Vehicles, persons and containers (sorted by depart) -->
    <trip id="t_0" depart="0.00" from="E0" to="E4" via="E1 E2 E3 E4 E0 E1 E2 E3"/>
    <trip id="t_1" depart="0.00" from="E0" to="E4" via="E1 E2 E3 E4 E0 E1 E2 E3 E4 E0 E1 E2 E3 E4 E0 E1 E2 E3 E4 E0 E1 E2 E3"/>
    <trip id="t_2" depart="0.00" from="E0" to="E4" via="E1 E2 E3 E4 E0 E1 E2 E3 E4 E0 E1 E2 E3 E4 E0 E1 E2 E3 E4 E0 E1 E2 E3"/>
    <trip id="t_3" type="DEFAULT_CONTAINERTYPE" depart="0.00" from="E0" to="E4" via="E1 E2 E3 E4 E0 E1 E2 E3 E4 E0 E1 E2 E3"/>
    <trip id="t_4" type="DEFAULT_BIKETYPE" depart="0.00" color="241,182,241" from="E0" to="E4" via="E1 E2 E3 E4 E0 E1 E2 E3"/>
</routes>
