<?xml version="1.0" encoding="UTF-8"?>

<!-- generated on 2022-06-10 16:12:35 by Eclipse SUMO netedit Version 1.13.0
-->

<routes xmlns:xsi="http://www.w3.org/2001/XMLSchema-instance" xsi:noNamespaceSchemaLocation="http://sumo.dlr.de/xsd/routes_file.xsd">
    <!-- Routes -->
    <route id="r_0" edges="E2" color="0,0,0,0"/>
    <route id="r_1" edges="E1" color="0,0,0,0"/>
    <route id="r_2" edges="E0" color="0,0,0,0"/>
    <route id="r_3" edges="E2" color="0,0,0,0"/>
    <!-- Vehicles, persons and containers (sorted by depart) -->
    <trip id="t_0" depart="0.00" from="E6" to="E6"/>
    <trip id="t_1" depart="1.00" from="E6" to="E6"/>
    <trip id="t_10" depart="2.00" from="E5" to="E7" via="E1 E2 E3 E4 E0"/>
    <trip id="t_11" depart="3.00" from="E5" to="E7"/>
    <trip id="t_12" depart="4.00" from="E5" to="E7" via="E1 E2 E3 E4 E0 E1 E2 E3 E4 E0"/>
    <trip id="t_2" depart="5.00" departLane="1" departPos="13.03" arrivalLane="1" arrivalPos="0.00" from="E0" to="E0"/>
    <trip id="t_3" depart="6.00" departLane="1" departPos="6.76" arrivalLane="0" arrivalPos="0.00" from="E0" to="E7"/>
    <trip id="t_4" depart="7.00" departLane="2" departPos="6.77" arrivalLane="2" arrivalPos="0.00" from="E0" to="E0"/>
    <trip id="t_5" type="DEFAULT_TAXITYPE" depart="8.00" departLane="0" departPos="12.88" arrivalLane="0" arrivalPos="0.00" from="E0" to="E0"/>
    <trip id="t_6" type="DEFAULT_BIKETYPE" depart="9.00" from="E0" to="E0"/>
    <trip id="t_7" depart="10.00" departLane="1" departPos="0.00" arrivalLane="0" arrivalPos="0.00" from="E0" to="E7"/>
    <trip id="t_8" depart="11.00" departLane="0" departPos="6.56" arrivalLane="0" arrivalPos="0.00" from="E0" to="E7" via="E1 E2 E3 E4 E0"/>
    <trip id="t_9" depart="12.00" departLane="2" departPos="0.00" arrivalLane="0" arrivalPos="0.00" from="E0" to="E4" via="E1 E2 E3 E4 E0 E1 E2 E3"/>
</routes>
