<?xml version="1.0" encoding="UTF-8"?>

<!-- generated on 2022-06-10 16:20:02 by Eclipse SUMO netedit Version 1.13.0
<configuration xmlns:xsi="http://www.w3.org/2001/XMLSchema-instance" xsi:noNamespaceSchemaLocation="http://sumo.dlr.de/xsd/netconvertConfiguration.xsd">

    <input>
        <sumo-net-file value="D:\@Tll_Training\SUMO_Projects\DualLane\duallane.net.xml"/>
    </input>

    <output>
        <output-file value="D:\@Tll_Training\SUMO_Projects\DualLane\duallane.net.xml"/>
    </output>

    <processing>
        <geometry.min-radius.fix.railways value="false"/>
        <geometry.max-grade.fix value="false"/>
        <offset.disable-normalization value="true"/>
        <lefthand value="false"/>
    </processing>

    <junctions>
        <no-turnarounds value="true"/>
        <junctions.corner-detail value="5"/>
        <junctions.limit-turn-speed value="5.5"/>
        <rectangular-lane-cut value="false"/>
    </junctions>

    <pedestrian>
        <walkingareas value="false"/>
    </pedestrian>

    <netedit>
        <route-files value="D:\@Tll_Training\SUMO_Projects\DualLane\dualllane.rou.xml"/>
    </netedit>

    <report>
        <aggregate-warnings value="5"/>
    </report>

</configuration>
-->

<net version="1.9" junctionCornerDetail="5" limitTurnSpeed="5.50" xmlns:xsi="http://www.w3.org/2001/XMLSchema-instance" xsi:noNamespaceSchemaLocation="http://sumo.dlr.de/xsd/net_file.xsd">

    <location netOffset="0.00,0.00" convBoundary="-2603.78,-145.26,418.33,620.17" origBoundary="-10000000000.00,-10000000000.00,10000000000.00,10000000000.00" projParameter="!"/>

    <edge id=":J0_0" function="internal">
        <lane id=":J0_0_0" index="0" speed="10.31" length="49.31" shape="-2556.06,598.30 -2572.41,606.24 -2577.35,610.55 -2570.90,611.22 -2553.05,608.27"/>
        <lane id=":J0_0_1" index="1" speed="8.26" length="30.64" shape="-2558.34,595.82 -2567.86,600.81 -2570.36,603.50 -2565.85,603.90 -2554.32,602.00"/>
    </edge>
    <edge id=":J1_0" function="internal">
        <lane id=":J1_0_0" index="0" speed="5.46" length="10.10" shape="126.81,101.78 124.13,99.84 122.40,99.65 121.62,101.20 121.78,104.51"/>
    </edge>
    <edge id=":J1_1" function="internal">
        <lane id=":J1_1_0" index="0" speed="13.89" length="42.41" shape="128.94,99.40 122.20,91.55 113.97,79.83 107.31,68.60 105.90,64.13"/>
        <lane id=":J1_1_1" index="1" speed="13.89" length="40.68" shape="131.07,97.01 124.47,89.72 116.53,79.24 110.12,69.34 108.11,63.79"/>
    </edge>
    <edge id=":J1_12" function="internal">
        <lane id=":J1_12_0" index="0" speed="13.89" length="1.96" shape="105.90,64.13 105.30,62.26"/>
    </edge>
    <edge id=":J1_3" function="internal">
        <lane id=":J1_3_0" index="0" speed="10.71" length="12.22" shape="92.13,66.52 95.81,65.55 98.77,64.26 101.00,62.65 102.50,60.72"/>
        <lane id=":J1_3_1" index="1" speed="11.82" length="15.00" shape="92.77,69.66 97.13,68.47 100.68,66.84 103.40,64.77 105.30,62.26"/>
    </edge>
    <edge id=":J1_5" function="internal">
        <lane id=":J1_5_0" index="0" speed="13.50" length="39.67" shape="93.40,72.80 100.66,75.91 109.77,84.82 117.78,95.64 120.07,100.71"/>
        <lane id=":J1_5_1" index="1" speed="13.22" length="42.04" shape="93.40,72.80 99.86,76.05 107.91,85.11 115.01,96.07 118.62,104.99"/>
        <lane id=":J1_5_2" index="2" speed="13.47" length="43.65" shape="93.40,72.80 100.98,73.59 107.18,79.30 112.00,89.93 115.46,105.48"/>
        <lane id=":J1_5_3" index="3" speed="13.14" length="41.52" shape="93.40,72.80 99.60,73.85 104.82,79.74 109.05,90.44 112.29,105.96"/>
    </edge>
    <edge id=":J1_13" function="internal">
        <lane id=":J1_13_0" index="0" speed="13.50" length="4.16" shape="120.07,100.71 121.78,104.51"/>
    </edge>
    <edge id=":J1_9" function="internal">
        <lane id=":J1_9_0" index="0" speed="13.89" length="17.42" shape="97.38,77.87 105.30,62.26"/>
        <lane id=":J1_9_1" index="1" speed="13.89" length="17.42" shape="100.28,79.24 108.11,63.79"/>
    </edge>
    <edge id=":J1_11" function="internal">
        <lane id=":J1_11_0" index="0" speed="9.43" length="35.13" shape="100.28,79.24 103.90,76.70 107.22,82.61 110.07,93.51 112.29,105.96"/>
    </edge>
    <edge id=":J2_0" function="internal">
        <lane id=":J2_0_0" index="0" speed="9.46" length="6.76" shape="127.61,14.71 131.48,10.51"/>
        <lane id=":J2_0_1" index="1" speed="9.76" length="6.76" shape="130.42,16.24 130.72,14.75 130.02,13.71 128.99,12.60 128.31,10.93"/>
        <lane id=":J2_0_2" index="2" speed="9.69" length="6.76" shape="130.42,16.24 131.23,14.68 131.62,13.50 131.67,12.27 131.48,10.51"/>
        <lane id=":J2_0_3" index="3" speed="11.92" length="6.76" shape="133.23,17.78 133.39,15.74 131.73,14.53 129.60,13.24 128.31,10.93"/>
    </edge>
    <edge id=":J3_0" function="internal">
        <lane id=":J3_0_0" index="0" speed="6.75" length="5.91" shape="121.76,-38.70 121.39,-40.19 120.69,-41.43 119.67,-42.42 118.32,-43.15"/>
        <lane id=":J3_0_1" index="1" speed="7.70" length="7.89" shape="124.93,-39.12 124.45,-39.90 123.19,-40.84 121.14,-41.92 118.32,-43.15"/>
    </edge>
    <edge id=":J4_0" function="internal">
        <lane id=":J4_0_0" index="0" speed="9.16" length="5.77" shape="-121.69,-140.83 -126.43,-144.13"/>
    </edge>

    <edge id="E0" from="J0" to="J1" priority="-1" shape="-2603.78,620.17 -2218.54,542.22 105.46,71.99">
        <lane id="E0_0" index="0" speed="13.89" length="2700.08" shape="-2554.32,602.00 -2220.13,534.38 92.13,66.52"/>
        <lane id="E0_1" index="1" speed="13.89" length="2700.08" shape="-2553.68,605.14 -2219.49,537.52 92.77,69.66"/>
        <lane id="E0_2" index="2" speed="13.89" length="2700.08" shape="-2553.05,608.27 -2218.86,540.65 93.40,72.80"/>
    </edge>
    <edge id="E1" from="J1" to="J2" priority="-1">
        <lane id="E1_0" index="0" speed="13.89" length="52.42" shape="102.50,60.72 127.61,14.71"/>
        <lane id="E1_1" index="1" speed="13.89" length="52.42" shape="105.30,62.26 130.42,16.24"/>
        <lane id="E1_2" index="2" speed="13.89" length="52.42" shape="108.11,63.79 133.23,17.78"/>
    </edge>
    <edge id="E2" from="J2" to="J3" priority="-1">
        <lane id="E2_0" index="0" speed="13.89" length="50.06" shape="128.31,10.93 121.76,-38.70"/>
        <lane id="E2_1" index="1" speed="13.89" length="50.06" shape="131.48,10.51 124.93,-39.12"/>
    </edge>
    <edge id="E3" from="J3" to="J4" priority="-1">
        <lane id="E3_0" index="0" speed="13.89" length="259.13" shape="118.32,-43.15 -121.69,-140.83"/>
    </edge>
    <edge id="E4" from="J4" to="J0" priority="-1" shape="-128.32,-145.26 -131.97,-144.23 -135.61,-143.21 -139.25,-142.18 -142.89,-141.15 -146.52,-140.13 -150.15,-139.10 -153.78,-138.08 -157.41,-137.06 -161.04,-136.03 -164.66,-135.01 -168.28,-133.99 -171.89,-132.97 -175.51,-131.95 -179.12,-130.93 -182.73,-129.91 -186.33,-128.90 -189.93,-127.88 -193.53,-126.86 -197.13,-125.85 -200.73,-124.83 -204.32,-123.82 -207.91,-122.80 -211.49,-121.79 -215.08,-120.78 -218.66,-119.77 -222.24,-118.76 -225.81,-117.75 -229.39,-116.74 -232.96,-115.73 -236.53,-114.72 -240.09,-113.71 -243.65,-112.71 -247.21,-111.70 -250.77,-110.69 -254.33,-109.69 -257.88,-108.69 -261.43,-107.68 -264.97,-106.68 -268.52,-105.68 -272.06,-104.68 -275.60,-103.68 -279.13,-102.68 -282.67,-101.68 -286.20,-100.68 -289.73,-99.68 -293.25,-98.68 -296.77,-97.68 -300.29,-96.69 -303.81,-95.69 -307.32,-94.70 -310.84,-93.71 -314.34,-92.71 -317.85,-91.72 -321.35,-90.73 -324.86,-89.74 -328.35,-88.75 -331.85,-87.76 -335.34,-86.77 -338.83,-85.78 -342.32,-84.79 -345.81,-83.80 -349.29,-82.82 -352.77,-81.83 -356.24,-80.84 -359.72,-79.86 -363.19,-78.88 -366.66,-77.89 -370.12,-76.91 -373.59,-75.93 -377.05,-74.95 -380.51,-73.97 -383.96,-72.99 -387.41,-72.01 -390.86,-71.03 -394.31,-70.05 -397.76,-69.08 -401.20,-68.10 -404.64,-67.12 -408.07,-66.15 -411.51,-65.17 -414.94,-64.20 -418.37,-63.23 -421.79,-62.25 -425.22,-61.28 -428.64,-60.31 -432.06,-59.34 -435.47,-58.37 -438.88,-57.40 -442.29,-56.44 -445.70,-55.47 -449.10,-54.50 -452.51,-53.53 -455.91,-52.57 -459.30,-51.60 -462.70,-50.64 -466.09,-49.68 -469.47,-48.71 -472.86,-47.75 -476.24,-46.79 -479.62,-45.83 -483.00,-44.87 -486.38,-43.91 -489.75,-42.95 -493.12,-41.99 -496.48,-41.03 -499.85,-40.08 -503.21,-39.12 -506.57,-38.17 -509.93,-37.21 -513.28,-36.26 -516.63,-35.30 -519.98,-34.35 -523.32,-33.40 -526.67,-32.45 -530.01,-31.50 -533.34,-30.55 -536.68,-29.60 -540.01,-28.65 -543.34,-27.70 -546.67,-26.75 -549.99,-25.81 -553.31,-24.86 -556.63,-23.92 -559.95,-22.97 -563.26,-22.03 -566.57,-21.08 -569.88,-20.14 -573.18,-19.20 -576.49,-18.26 -579.79,-17.32 -583.08,-16.38 -586.38,-15.44 -589.67,-14.50 -592.96,-13.56 -596.24,-12.63 -599.53,-11.69 -602.81,-10.75 -606.09,-9.82 -609.36,-8.88 -612.64,-7.95 -615.91,-7.02 -619.17,-6.08 -622.44,-5.15 -625.70,-4.22 -628.96,-3.29 -632.22,-2.36 -635.47,-1.43 -638.72,-0.50 -641.97,0.42 -645.22,1.35 -648.46,2.28 -651.70,3.20 -654.94,4.13 -658.18,5.05 -661.41,5.98 -664.64,6.90 -667.87,7.82 -671.09,8.74 -674.31,9.66 -677.53,10.58 -680.75,11.50 -683.96,12.42 -687.18,13.34 -690.38,14.26 -693.59,15.18 -696.79,16.09 -699.99,17.01 -703.19,17.92 -706.39,18.84 -709.58,19.75 -712.77,20.66 -715.96,21.57 -719.14,22.49 -722.32,23.40 -725.50,24.31 -728.68,25.22 -731.85,26.13 -735.02,27.03 -738.19,27.94 -741.36,28.85 -744.52,29.75 -747.68,30.66 -750.84,31.56 -753.99,32.47 -757.15,33.37 -760.30,34.27 -763.44,35.18 -766.59,36.08 -769.73,36.98 -772.87,37.88 -776.00,38.78 -779.14,39.68 -782.27,40.57 -785.40,41.47 -788.52,42.37 -791.64,43.26 -794.77,44.16 -797.88,45.05 -801.00,45.95 -804.11,46.84 -807.22,47.73 -810.33,48.62 -813.43,49.52 -816.53,50.41 -819.63,51.30 -822.73,52.19 -825.82,53.07 -828.91,53.96 -832.00,54.85 -835.08,55.74 -838.17,56.62 -841.25,57.51 -844.32,58.39 -847.40,59.27 -850.47,60.16 -853.54,61.04 -856.60,61.92 -859.67,62.80 -862.73,63.68 -865.79,64.56 -868.84,65.44 -871.90,66.32 -874.95,67.20 -878.00,68.07 -881.04,68.95 -884.08,69.83 -887.12,70.70 -890.16,71.58 -893.19,72.45 -896.23,73.32 -899.25,74.19 -902.28,75.07 -905.30,75.94 -908.33,76.81 -911.34,77.68 -914.36,78.55 -917.37,79.41 -920.38,80.28 -923.39,81.15 -926.39,82.01 -929.40,82.88 -932.40,83.74 -935.39,84.61 -938.39,85.47 -941.38,86.33 -944.37,87.20 -947.35,88.06 -950.34,88.92 -953.32,89.78 -956.30,90.64 -959.27,91.50 -962.24,92.36 -965.21,93.21 -968.18,94.07 -971.15,94.93 -974.11,95.78 -977.07,96.64 -980.02,97.49 -982.98,98.34 -985.93,99.20 -988.88,100.05 -991.82,100.90 -994.77,101.75 -997.71,102.60 -1000.64,103.45 -1003.58,104.30 -1006.51,105.15 -1009.44,105.99 -1012.37,106.84 -1015.29,107.68 -1018.21,108.53 -1021.13,109.37 -1024.05,110.22 -1026.96,111.06 -1029.87,111.90 -1032.78,112.75 -1035.69,113.59 -1038.59,114.43 -1041.49,115.27 -1044.39,116.11 -1047.28,116.94 -1050.18,117.78 -1053.07,118.62 -1055.95,119.46 -1058.84,120.29 -1061.72,121.13 -1064.60,121.96 -1067.47,122.79 -1070.35,123.63 -1073.22,124.46 -1076.09,125.29 -1078.95,126.12 -1081.81,126.95 -1084.67,127.78 -1087.53,128.61 -1090.39,129.44 -1093.24,130.27 -1096.09,131.09 -1098.93,131.92 -1101.78,132.75 -1104.62,133.57 -1107.46,134.40 -1110.29,135.22 -1113.13,136.04 -1115.96,136.86 -1118.78,137.69 -1121.61,138.51 -1124.43,139.33 -1127.25,140.15 -1130.07,140.97 -1132.88,141.78 -1135.70,142.60 -1138.50,143.42 -1141.31,144.23 -1144.11,145.05 -1146.92,145.86 -1149.71,146.68 -1152.51,147.49 -1155.30,148.30 -1158.09,149.12 -1160.88,149.93 -1163.67,150.74 -1166.45,151.55 -1169.23,152.36 -1172.00,153.17 -1174.78,153.97 -1177.55,154.78 -1180.32,155.59 -1183.08,156.39 -1185.85,157.20 -1188.61,158.00 -1191.37,158.81 -1194.12,159.61 -1196.88,160.41 -1199.63,161.22 -1202.37,162.02 -1205.12,162.82 -1207.86,163.62 -1210.60,164.42 -1213.34,165.22 -1216.07,166.01 -1218.80,166.81 -1221.53,167.61 -1224.26,168.40 -1226.98,169.20 -1229.70,169.99 -1232.42,170.79 -1235.13,171.58 -1237.84,172.37 -1240.55,173.16 -1243.26,173.95 -1245.97,174.75 -1248.67,175.54 -1251.37,176.32 -1254.06,177.11 -1256.76,177.90 -1259.45,178.69 -1262.14,179.47 -1264.82,180.26 -1267.51,181.04 -1270.19,181.83 -1272.86,182.61 -1275.54,183.40 -1278.21,184.18 -1280.88,184.96 -1283.55,185.74 -1286.21,186.52 -1288.87,187.30 -1291.53,188.08 -1294.19,188.86 -1296.84,189.63 -1299.49,190.41 -1302.14,191.19 -1304.79,191.96 -1307.43,192.74 -1310.07,193.51 -1312.71,194.29 -1315.34,195.06 -1317.97,195.83 -1320.60,196.60 -1323.23,197.37 -1325.85,198.14 -1328.47,198.91 -1331.09,199.68 -1333.71,200.45 -1336.32,201.22 -1338.93,201.98 -1341.54,202.75 -1344.15,203.52 -1346.75,204.28 -1349.35,205.04 -1351.95,205.81 -1354.54,206.57 -1357.13,207.33 -1359.72,208.09 -1362.31,208.85 -1364.89,209.61 -1367.47,210.37 -1370.05,211.13 -1372.63,211.89 -1375.20,212.65 -1377.77,213.40 -1380.34,214.16 -1382.90,214.92 -1385.47,215.67 -1388.03,216.42 -1390.58,217.18 -1393.14,217.93 -1395.69,218.68 -1398.24,219.43 -1400.78,220.18 -1403.33,220.93 -1405.87,221.68 -1408.41,222.43 -1410.94,223.18 -1413.47,223.93 -1416.00,224.67 -1418.53,225.42 -1421.06,226.16 -1423.58,226.91 -1426.10,227.65 -1428.61,228.39 -1431.13,229.14 -1433.64,229.88 -1436.15,230.62 -1438.66,231.36 -1441.16,232.10 -1443.66,232.84 -1446.16,233.58 -1448.65,234.31 -1451.14,235.05 -1453.63,235.79 -1456.12,236.52 -1458.61,237.26 -1461.09,237.99 -1463.57,238.73 -1466.04,239.46 -1468.52,240.19 -1470.99,240.92 -1473.46,241.65 -1475.92,242.38 -1478.39,243.11 -1480.85,243.84 -1483.30,244.57 -1485.76,245.30 -1488.21,246.03 -1490.66,246.75 -1493.11,247.48 -1495.55,248.20 -1498.00,248.93 -1500.43,249.65 -1502.87,250.37 -1505.30,251.09 -1507.73,251.82 -1510.16,252.54 -1512.59,253.26 -1515.01,253.98 -1517.43,254.70 -1519.85,255.41 -1522.26,256.13 -1524.68,256.85 -1527.09,257.56 -1529.49,258.28 -1531.90,258.99 -1534.30,259.71 -1536.70,260.42 -1539.09,261.13 -1541.49,261.85 -1543.88,262.56 -1546.26,263.27 -1548.65,263.98 -1551.03,264.69 -1553.41,265.40 -1555.79,266.10 -1558.16,266.81 -1560.54,267.52 -1562.91,268.22 -1565.27,268.93 -1567.64,269.63 -1570.00,270.34 -1572.36,271.04 -1574.71,271.74 -1577.07,272.44 -1579.42,273.15 -1581.76,273.85 -1584.11,274.55 -1586.45,275.24 -1588.79,275.94 -1591.13,276.64 -1593.46,277.34 -1595.79,278.03 -1598.12,278.73 -1600.45,279.43 -1602.77,280.12 -1605.09,280.81 -1607.41,281.51 -1609.73,282.20 -1612.04,282.89 -1614.35,283.58 -1616.66,284.27 -1618.96,284.96 -1621.27,285.65 -1623.57,286.34 -1625.86,287.03 -1628.16,287.71 -1630.45,288.40 -1632.74,289.09 -1635.02,289.77 -1637.31,290.45 -1639.59,291.14 -1641.86,291.82 -1644.14,292.50 -1646.41,293.18 -1648.68,293.87 -1650.95,294.55 -1653.21,295.23 -1655.48,295.90 -1657.74,296.58 -1659.99,297.26 -1662.25,297.94 -1664.50,298.61 -1666.75,299.29 -1668.99,299.96 -1671.24,300.64 -1673.48,301.31 -1675.71,301.98 -1677.95,302.66 -1680.18,303.33 -1682.41,304.00 -1684.64,304.67 -1686.86,305.34 -1689.08,306.01 -1691.30,306.67 -1693.52,307.34 -1695.73,308.01 -1697.94,308.67 -1700.15,309.34 -1702.36,310.00 -1704.56,310.67 -1706.76,311.33 -1708.96,311.99 -1711.15,312.66 -1713.35,313.32 -1715.54,313.98 -1717.72,314.64 -1719.91,315.30 -1722.09,315.96 -1724.27,316.61 -1726.44,317.27 -1728.62,317.93 -1730.79,318.58 -1732.96,319.24 -1735.12,319.89 -1737.28,320.55 -1739.44,321.20 -1741.60,321.85 -1743.76,322.50 -1745.91,323.15 -1748.06,323.80 -1750.20,324.45 -1752.35,325.10 -1754.49,325.75 -1756.63,326.40 -1758.76,327.05 -1760.90,327.69 -1763.03,328.34 -1765.16,328.98 -1767.28,329.63 -1769.40,330.27 -1771.52,330.92 -1773.64,331.56 -1775.76,332.20 -1777.87,332.84 -1779.98,333.48 -1782.08,334.12 -1784.19,334.76 -1786.29,335.40 -1788.39,336.03 -1790.48,336.67 -1792.57,337.31 -1794.67,337.94 -1796.75,338.58 -1798.84,339.21 -1800.92,339.85 -1803.00,340.48 -1805.08,341.11 -1807.15,341.74 -1809.22,342.37 -1811.29,343.00 -1813.36,343.63 -1815.42,344.26 -1817.48,344.89 -1819.54,345.52 -1821.60,346.14 -1823.65,346.77 -1825.70,347.40 -1827.75,348.02 -1829.79,348.64 -1831.83,349.27 -1833.87,349.89 -1835.91,350.51 -1837.94,351.13 -1839.97,351.75 -1842.00,352.37 -1844.03,352.99 -1846.05,353.61 -1848.07,354.23 -1850.09,354.85 -1852.11,355.46 -1854.12,356.08 -1856.13,356.70 -1858.14,357.31 -1860.14,357.92 -1862.14,358.54 -1864.14,359.15 -1866.14,359.76 -1868.13,360.37 -1870.12,360.98 -1872.11,361.59 -1874.10,362.20 -1876.08,362.81 -1878.06,363.42 -1880.04,364.03 -1882.01,364.63 -1883.99,365.24 -1885.96,365.84 -1887.92,366.45 -1889.89,367.05 -1891.85,367.66 -1893.81,368.26 -1895.76,368.86 -1897.72,369.46 -1899.67,370.06 -1901.62,370.66 -1903.56,371.26 -1905.50,371.86 -1907.44,372.46 -1909.38,373.05 -1911.32,373.65 -1913.25,374.24 -1915.18,374.84 -1917.10,375.43 -1919.03,376.03 -1920.95,376.62 -1922.87,377.21 -1924.79,377.80 -1926.70,378.40 -1928.61,378.99 -1930.52,379.58 -1932.42,380.16 -1934.33,380.75 -1936.22,381.34 -1938.12,381.93 -1940.02,382.51 -1941.91,383.10 -1943.80,383.68 -1945.68,384.27 -1947.57,384.85 -1949.45,385.43 -1951.33,386.02 -1953.20,386.60 -1955.08,387.18 -1956.95,387.76 -1958.81,388.34 -1960.68,388.92 -1962.54,389.49 -1964.40,390.07 -1966.26,390.65 -1968.11,391.22 -1969.97,391.80 -1971.81,392.38 -1973.66,392.95 -1975.50,393.52 -1977.34,394.10 -1979.18,394.67 -1981.02,395.24 -1982.85,395.81 -1984.68,396.38 -1986.51,396.95 -1988.33,397.52 -1990.16,398.08 -1991.98,398.65 -1993.79,399.22 -1995.61,399.78 -1997.42,400.35 -1999.23,400.91 -2001.03,401.48 -2002.84,402.04 -2004.64,402.60 -2006.44,403.17 -2008.23,403.73 -2010.02,404.29 -2011.81,404.85 -2013.60,405.41 -2015.39,405.96 -2017.17,406.52 -2018.95,407.08 -2020.72,407.64 -2022.50,408.19 -2024.27,408.75 -2026.04,409.30 -2027.80,409.86 -2029.57,410.41 -2031.33,410.96 -2033.08,411.51 -2034.84,412.06 -2036.59,412.61 -2038.34,413.16 -2040.09,413.71 -2041.83,414.26 -2043.57,414.81 -2045.31,415.36 -2047.05,415.90 -2048.78,416.45 -2050.51,416.99 -2052.24,417.54 -2053.97,418.08 -2055.69,418.62 -2057.41,419.17 -2059.13,419.71 -2060.84,420.25 -2062.56,420.79 -2064.27,421.33 -2065.97,421.87 -2067.68,422.40 -2069.38,422.94 -2071.08,423.48 -2072.77,424.02 -2074.47,424.55 -2076.16,425.09 -2077.85,425.62 -2079.53,426.15 -2081.21,426.69 -2082.89,427.22 -2084.57,427.75 -2086.25,428.28 -2087.92,428.81 -2089.59,429.34 -2091.25,429.87 -2092.92,430.40 -2094.58,430.92 -2096.24,431.45 -2097.89,431.98 -2099.55,432.50 -2101.20,433.03 -2102.84,433.55 -2104.49,434.07 -2106.13,434.60 -2107.77,435.12 -2109.41,435.64 -2111.04,436.16 -2112.68,436.68 -2114.30,437.20 -2115.93,437.72 -2117.55,438.24 -2119.18,438.75 -2120.79,439.27 -2122.41,439.79 -2124.02,440.30 -2125.63,440.82 -2127.24,441.33 -2128.85,441.84 -2130.45,442.35 -2132.05,442.87 -2133.64,443.38 -2135.24,443.89 -2136.83,444.40 -2138.42,444.91 -2140.00,445.42 -2141.59,445.92 -2143.17,446.43 -2144.75,446.94 -2146.32,447.44 -2147.90,447.95 -2149.47,448.45 -2151.03,448.96 -2152.60,449.46 -2154.16,449.96 -2155.72,450.46 -2157.28,450.96 -2158.83,451.46 -2160.38,451.96 -2161.93,452.46 -2163.48,452.96 -2165.02,453.46 -2166.56,453.96 -2168.10,454.45 -2169.63,454.95 -2171.16,455.44 -2172.69,455.94 -2174.22,456.43 -2175.75,456.92 -2177.27,457.41 -2178.79,457.91 -2180.30,458.40 -2181.82,458.89 -2183.33,459.38 -2184.84,459.87 -2186.34,460.35 -2187.85,460.84 -2189.35,461.33 -2190.84,461.81 -2192.34,462.30 -2193.83,462.78 -2195.32,463.27 -2196.81,463.75 -2198.29,464.23 -2199.77,464.72 -2201.25,465.20 -2202.73,465.68 -2204.20,466.16 -2205.67,466.64 -2207.14,467.12 -2208.61,467.59 -2210.07,468.07 -2211.53,468.55 -2212.99,469.02 -2214.44,469.50 -2215.89,469.97 -2217.34,470.45 -2218.79,470.92 -2220.23,471.39 -2221.68,471.87 -2223.11,472.34 -2224.55,472.81 -2225.98,473.28 -2227.41,473.75 -2228.84,474.22 -2230.27,474.68 -2231.69,475.15 -2233.11,475.62 -2234.53,476.08 -2235.94,476.55 -2237.35,477.01 -2238.76,477.48 -2240.17,477.94 -2241.57,478.40 -2242.97,478.86 -2244.37,479.32 -2245.77,479.79 -2247.16,480.24 -2248.55,480.70 -2249.94,481.16 -2251.32,481.62 -2252.71,482.08 -2254.09,482.53 -2255.46,482.99 -2256.84,483.44 -2258.21,483.90 -2259.58,484.35 -2260.94,484.81 -2262.31,485.26 -2263.67,485.71 -2265.03,486.16 -2266.38,486.61 -2267.74,487.06 -2269.09,487.51 -2270.43,487.96 -2271.78,488.40 -2273.12,488.85 -2274.46,489.30 -2275.80,489.74 -2277.13,490.19 -2278.46,490.63 -2279.79,491.08 -2281.12,491.52 -2282.44,491.96 -2283.76,492.40 -2285.08,492.84 -2286.39,493.28 -2287.71,493.72 -2289.02,494.16 -2290.32,494.60 -2291.63,495.04 -2292.93,495.47 -2294.23,495.91 -2295.53,496.35 -2296.82,496.78 -2298.11,497.21 -2299.40,497.65 -2300.68,498.08 -2301.97,498.51 -2303.25,498.94 -2304.53,499.37 -2305.80,499.80 -2307.07,500.23 -2308.34,500.66 -2309.61,501.09 -2310.87,501.52 -2312.14,501.94 -2313.40,502.37 -2314.65,502.79 -2315.91,503.22 -2317.16,503.64 -2318.40,504.07 -2319.65,504.49 -2320.89,504.91 -2322.13,505.33 -2323.37,505.75 -2324.61,506.17 -2325.84,506.59 -2327.07,507.01 -2328.29,507.43 -2329.52,507.85 -2330.74,508.26 -2331.96,508.68 -2333.17,509.09 -2334.39,509.51 -2335.60,509.92 -2336.81,510.33 -2338.01,510.75 -2339.21,511.16 -2340.41,511.57 -2341.61,511.98 -2342.81,512.39 -2344.00,512.80 -2345.19,513.21 -2346.37,513.61 -2347.56,514.02 -2348.74,514.43 -2349.92,514.83 -2351.09,515.24 -2352.27,515.64 -2353.44,516.05 -2354.60,516.45 -2355.77,516.85 -2356.93,517.25 -2358.09,517.65 -2359.25,518.05 -2360.40,518.45 -2361.56,518.85 -2362.70,519.25 -2363.85,519.65 -2364.99,520.04 -2366.14,520.44 -2367.27,520.84 -2368.41,521.23 -2369.54,521.63 -2370.67,522.02 -2371.80,522.41 -2372.93,522.80 -2374.05,523.20 -2375.17,523.59 -2376.28,523.98 -2377.40,524.37 -2378.51,524.75 -2379.62,525.14 -2380.72,525.53 -2381.83,525.92 -2382.93,526.30 -2384.03,526.69 -2385.12,527.07 -2386.21,527.46 -2387.30,527.84 -2388.39,528.22 -2389.48,528.60 -2390.56,528.99 -2391.64,529.37 -2392.71,529.75 -2393.79,530.13 -2394.86,530.50 -2395.93,530.88 -2396.99,531.26 -2398.06,531.64 -2399.12,532.01 -2400.18,532.39 -2401.23,532.76 -2402.28,533.14 -2403.33,533.51 -2404.38,533.88 -2405.42,534.25 -2406.47,534.62 -2407.51,534.99 -2408.54,535.36 -2409.58,535.73 -2410.61,536.10 -2411.64,536.47 -2412.66,536.84 -2413.68,537.20 -2414.70,537.57 -2415.72,537.93 -2416.74,538.30 -2417.75,538.66 -2418.76,539.02 -2419.77,539.39 -2420.77,539.75 -2421.77,540.11 -2422.77,540.47 -2423.77,540.83 -2424.76,541.19 -2425.75,541.55 -2426.74,541.90 -2427.72,542.26 -2428.71,542.62 -2429.69,542.97 -2430.66,543.33 -2431.64,543.68 -2432.61,544.04 -2433.58,544.39 -2434.55,544.74 -2435.51,545.09 -2436.47,545.44 -2437.43,545.79 -2438.39,546.14 -2439.34,546.49 -2440.29,546.84 -2441.24,547.19 -2442.18,547.53 -2443.13,547.88 -2444.07,548.23 -2445.00,548.57 -2445.94,548.92 -2446.87,549.26 -2447.80,549.60 -2448.73,549.94 -2449.65,550.28 -2450.57,550.63 -2451.49,550.97 -2452.40,551.31 -2453.32,551.64 -2454.23,551.98 -2455.14,552.32 -2456.04,552.66 -2456.94,552.99 -2457.84,553.33 -2458.74,553.66 -2459.63,554.00 -2460.52,554.33 -2461.41,554.66 -2462.30,554.99 -2463.18,555.32 -2464.06,555.66 -2464.94,555.99 -2465.82,556.31 -2466.69,556.64 -2467.56,556.97 -2468.43,557.30 -2469.29,557.62 -2470.16,557.95 -2471.01,558.28 -2471.87,558.60 -2472.73,558.92 -2473.58,559.25 -2474.43,559.57 -2475.27,559.89 -2476.11,560.21 -2476.96,560.53 -2477.79,560.85 -2478.63,561.17 -2479.46,561.49 -2480.29,561.81 -2481.12,562.12 -2481.94,562.44 -2482.76,562.76 -2483.58,563.07 -2484.40,563.39 -2485.21,563.70 -2486.03,564.01 -2486.83,564.33 -2487.64,564.64 -2488.44,564.95 -2489.24,565.26 -2490.04,565.57 -2490.84,565.88 -2491.63,566.18 -2492.42,566.49 -2493.20,566.80 -2493.99,567.11 -2494.77,567.41 -2495.55,567.72 -2496.33,568.02 -2497.10,568.32 -2497.87,568.63 -2498.64,568.93 -2499.40,569.23 -2500.17,569.53 -2500.93,569.83 -2501.68,570.13 -2502.44,570.43 -2503.19,570.73 -2503.94,571.03 -2504.69,571.32 -2505.43,571.62 -2506.17,571.91 -2506.91,572.21 -2507.65,572.50 -2508.38,572.80 -2509.11,573.09 -2509.84,573.38 -2510.57,573.67 -2511.29,573.96 -2512.01,574.25 -2512.72,574.54 -2513.44,574.83 -2514.15,575.12 -2514.86,575.41 -2515.57,575.69 -2516.27,575.98 -2516.97,576.26 -2517.67,576.55 -2518.37,576.83 -2519.06,577.12 -2519.75,577.40 -2520.44,577.68 -2521.12,577.96 -2521.81,578.24 -2522.48,578.52 -2523.16,578.80 -2523.84,579.08 -2524.51,579.36 -2525.18,579.63 -2525.84,579.91 -2526.51,580.19 -2527.17,580.46 -2527.83,580.74 -2528.48,581.01 -2529.13,581.28 -2529.78,581.55 -2530.43,581.83 -2531.08,582.10 -2531.72,582.37 -2532.36,582.64 -2533.00,582.91 -2533.63,583.18 -2534.26,583.44 -2534.89,583.71 -2535.52,583.98 -2536.14,584.24 -2536.76,584.51 -2537.38,584.77 -2537.99,585.03 -2538.61,585.30 -2539.22,585.56 -2539.82,585.82 -2540.43,586.08 -2541.03,586.34 -2541.63,586.60 -2542.23,586.86 -2542.82,587.12 -2543.41,587.38 -2544.00,587.63 -2544.59,587.89 -2545.17,588.15 -2545.75,588.40 -2546.33,588.65 -2546.90,588.91 -2547.47,589.16 -2548.04,589.41 -2548.61,589.66 -2549.18,589.92 -2549.74,590.17 -2550.30,590.41 -2550.85,590.66 -2551.41,590.91 -2551.96,591.16 -2552.51,591.41 -2553.05,591.65 -2553.59,591.90 -2554.13,592.14 -2554.67,592.39 -2555.21,592.63 -2555.74,592.87 -2556.27,593.11 -2556.80,593.36 -2557.32,593.60 -2557.84,593.84 -2558.36,594.07 -2558.88,594.31 -2559.39,594.55 -2559.90,594.79 -2560.41,595.03 -2560.91,595.26 -2561.42,595.50 -2561.92,595.73 -2562.41,595.96 -2562.91,596.20 -2563.40,596.43 -2563.89,596.66 -2564.38,596.89 -2564.86,597.12 -2565.34,597.35 -2565.82,597.58 -2566.30,597.81 -2566.77,598.04 -2567.24,598.27 -2567.71,598.49 -2568.17,598.72 -2568.64,598.94 -2569.10,599.17 -2569.55,599.39 -2570.01,599.61 -2570.46,599.84 -2570.91,600.06 -2571.35,600.28 -2571.80,600.50 -2572.24,600.72 -2572.68,600.94 -2573.11,601.16 -2573.55,601.37 -2573.98,601.59 -2574.40,601.81 -2574.83,602.02 -2575.25,602.24 -2575.67,602.45 -2576.09,602.67 -2576.50,602.88 -2576.91,603.09 -2577.32,603.30 -2577.73,603.51 -2578.13,603.72 -2578.53,603.93 -2578.93,604.14 -2579.33,604.35 -2579.72,604.56 -2580.11,604.77 -2580.50,604.97 -2580.88,605.18 -2581.26,605.38 -2581.64,605.59 -2582.02,605.79 -2582.39,605.99 -2582.76,606.19 -2583.13,606.40 -2583.50,606.60 -2583.86,606.80 -2584.22,607.00 -2584.58,607.19 -2584.94,607.39 -2585.29,607.59 -2585.64,607.79 -2585.99,607.98 -2586.33,608.18 -2586.67,608.37 -2587.01,608.57 -2587.35,608.76 -2587.68,608.95 -2588.01,609.14 -2588.34,609.34 -2588.67,609.53 -2588.99,609.72 -2589.31,609.91 -2589.63,610.09 -2589.94,610.28 -2590.25,610.47 -2590.56,610.66 -2590.87,610.84 -2591.18,611.03 -2591.48,611.21 -2591.78,611.39 -2592.07,611.58 -2592.37,611.76 -2592.66,611.94 -2592.94,612.12 -2593.23,612.30 -2593.51,612.48 -2593.79,612.66 -2594.07,612.84 -2594.35,613.02 -2594.62,613.20 -2594.89,613.37 -2595.15,613.55 -2595.42,613.72 -2595.68,613.90 -2595.94,614.07 -2596.19,614.24 -2596.45,614.42 -2596.70,614.59 -2596.95,614.76 -2597.19,614.93 -2597.43,615.10 -2597.67,615.27 -2597.91,615.44 -2598.15,615.60 -2598.38,615.77 -2598.61,615.94 -2598.83,616.10 -2599.06,616.27 -2599.28,616.43 -2599.50,616.60 -2599.71,616.76 -2599.92,616.92 -2600.14,617.08 -2600.34,617.24 -2600.55,617.40 -2600.75,617.56 -2600.95,617.72 -2601.15,617.88 -2601.34,618.04 -2601.53,618.19 -2601.72,618.35 -2601.91,618.50 -2602.09,618.66 -2602.27,618.81 -2602.45,618.97 -2602.63,619.12 -2602.80,619.27 -2602.97,619.42 -2603.14,619.57 -2603.30,619.72 -2603.46,619.87 -2603.62,620.02 -2603.78,620.17">