<?xml version="1.0" encoding="UTF-8"?>

<!-- generated on 2022-06-23 17:42:16 by Eclipse SUMO netedit Version 1.10.0
<configuration xmlns:xsi="http://www.w3.org/2001/XMLSchema-instance" xsi:noNamespaceSchemaLocation="http://sumo.dlr.de/xsd/netconvertConfiguration.xsd">

    <input>
        <sumo-net-file value="D:\@Tll_Training\SUMO_Projects\HSKmultiLanesTLStest\seperate\SplineXMLForSUMOTrafficLanes.net.xml"/>
    </input>

    <output>
        <output-file value="D:\@Tll_Training\SUMO_Projects\HSKmultiLanesTLStest\seperate\SplineXMLForSUMOTrafficLanes.net.xml"/>
    </output>

    <processing>
        <geometry.min-radius.fix.railways value="false"/>
        <geometry.max-grade.fix value="false"/>
        <offset.disable-normalization value="true"/>
        <lefthand value="false"/>
    </processing>

    <junctions>
        <no-internal-links value="true"/>
        <no-turnarounds value="true"/>
        <junctions.corner-detail value="5"/>
        <junctions.limit-turn-speed value="5.5"/>
        <rectangular-lane-cut value="false"/>
    </junctions>

    <pedestrian>
        <walkingareas value="false"/>
    </pedestrian>

    <netedit>
        <route-files value="D:\@Tll_Training\SUMO_Projects\SumoLaneSeperateAndCombine\combine\SplineXMLForSUMOTrafficLanes.rou.xml"/>
    </netedit>

    <report>
        <aggregate-warnings value="5"/>
    </report>

</configuration>
-->

<routes xmlns:xsi="http://www.w3.org/2001/XMLSchema-instance" xsi:noNamespaceSchemaLocation="http://sumo.dlr.de/xsd/routes_file.xsd">
    <flow id="flow_0" begin="0.00" departLane="0" end="3600.00" number="1800">
        <route edges="e1" color="cyan"/>
    </flow>
    <flow id="flow_1" begin="0.00" departLane="1" end="3600.00" number="1800">
        <route edges="e1" color="cyan"/>
    </flow>
    <flow id="flow_2" begin="0.00" departLane="2" end="3600.00" number="1800">
        <route edges="e1" color="cyan"/>
    </flow>
    <flow id="flow_3" begin="0.00" departLane="3" end="3600.00" number="1800">
        <route edges="e1" color="cyan"/>
    </flow>
</routes>
