<?xml version="1.0" encoding="UTF-8"?>

<!-- generated on 2022-06-21 10:54:01 by Eclipse SUMO netedit Version 1.10.0
<configuration xmlns:xsi="http://www.w3.org/2001/XMLSchema-instance" xsi:noNamespaceSchemaLocation="http://sumo.dlr.de/xsd/netconvertConfiguration.xsd">

    <input>
        <sumo-net-file value="D:\@Tll_Training\SUMO_Projects\SumoLaneSeperateAndCombine\combine\SplineXMLForSUMOTrafficLanes.net.xml"/>
    </input>

    <output>
        <output-file value="D:\@Tll_Training\SUMO_Projects\SumoLaneSeperateAndCombine\combine\SplineXMLForSUMOTrafficLanes.net.xml"/>
    </output>

    <processing>
        <geometry.min-radius.fix.railways value="false"/>
        <geometry.max-grade.fix value="false"/>
        <offset.disable-normalization value="true"/>
        <lefthand value="false"/>
    </processing>

    <junctions>
        <no-internal-links value="true"/>
        <no-turnarounds value="true"/>
        <junctions.corner-detail value="5"/>
        <junctions.limit-turn-speed value="5.5"/>
        <rectangular-lane-cut value="false"/>
    </junctions>

    <pedestrian>
        <walkingareas value="false"/>
    </pedestrian>

    <netedit>
        <route-files value="D:\@Tll_Training\SUMO_Projects\SumoLaneSeperateAndCombine\combine\SplineXMLForSUMOTrafficLanes.rou.xml"/>
    </netedit>

    <report>
        <aggregate-warnings value="5"/>
    </report>

</configuration>
-->

<routes xmlns:xsi="http://www.w3.org/2001/XMLSchema-instance" xsi:noNamespaceSchemaLocation="http://sumo.dlr.de/xsd/routes_file.xsd">
    <route edges="edgeId_Shape04_1_St" color="yellow" id="route_0"/>
    <vehicle id="0" depart="0.00" departLane="0" departPos="6.00" route="route_0"/>
    <vehicle id="vehicle_1" depart="0.00" departLane="3" departPos="6.00" route="route_0"/>
    <vehicle id="vehicle_2" depart="0.00" departLane="2" route="route_0"/>
    <vehicle id="vehicle_3" depart="0.00" departLane="1" route="route_0"/>
    <vehicle id="vehicle_4" depart="0.00" departLane="3" route="route_0"/>
    <vehicle id="vehicle_5" depart="0.00" departLane="0" route="route_0"/>
    <vehicle id="vehicle_6" depart="0.00" departLane="1" departPos="6.00" route="route_0"/>
    <vehicle id="vehicle_7" depart="0.00" departLane="2" departPos="6.00" route="route_0"/>
</routes>
