<?xml version="1.0" encoding="UTF-8"?>

<!-- generated on 2022-06-21 11:25:04 by Eclipse SUMO netedit Version 1.10.0
<configuration xmlns:xsi="http://www.w3.org/2001/XMLSchema-instance" xsi:noNamespaceSchemaLocation="http://sumo.dlr.de/xsd/netconvertConfiguration.xsd">

    <input>
        <sumo-net-file value="D:\@Tll_Training\SUMO_Projects\SumoLaneSeperateAndCombine\seperate\SplineXMLForSUMOTrafficLanes.net.xml"/>
    </input>

    <output>
        <output-file value="D:\@Tll_Training\SUMO_Projects\SumoLaneSeperateAndCombine\seperate\SplineXMLForSUMOTrafficLanes.net.xml"/>
    </output>

    <processing>
        <geometry.min-radius.fix.railways value="false"/>
        <geometry.max-grade.fix value="false"/>
        <offset.disable-normalization value="true"/>
        <lefthand value="false"/>
    </processing>

    <junctions>
        <no-internal-links value="true"/>
        <no-turnarounds value="true"/>
        <junctions.corner-detail value="5"/>
        <junctions.limit-turn-speed value="5.5"/>
        <rectangular-lane-cut value="false"/>
    </junctions>

    <pedestrian>
        <walkingareas value="false"/>
    </pedestrian>

    <netedit>
        <route-files value="D:\@Tll_Training\SUMO_Projects\SumoLaneSeperateAndCombine\seperate\SplineXMLForSUMOTrafficLanes.rou.xml"/>
    </netedit>

    <report>
        <aggregate-warnings value="5"/>
    </report>

</configuration>
-->

<routes xmlns:xsi="http://www.w3.org/2001/XMLSchema-instance" xsi:noNamespaceSchemaLocation="http://sumo.dlr.de/xsd/routes_file.xsd">
    <vehicle id="0" depart="0.00" departPos="12.00">
        <route edges="edgeId_Shape04_2_1_St" color="cyan"/>
    </vehicle>
    <vehicle id="vehicle_1" depart="0.00">
        <route edges="edgeId_Shape05_5_1_St" color="cyan"/>
    </vehicle>
    <vehicle id="vehicle_10" depart="0.00" departPos="12.00">
        <route edges="edgeId_Shape05_5_1_St" color="cyan"/>
    </vehicle>
    <vehicle id="vehicle_11" depart="0.00" departPos="6.00">
        <route edges="edgeId_Shape02_4_1_St" color="cyan"/>
    </vehicle>
    <vehicle id="vehicle_12" depart="0.00" departPos="12.00">
        <route edges="edgeId_Shape01_1_1_St" color="cyan"/>
    </vehicle>
    <vehicle id="vehicle_2" depart="0.00" departPos="12.00">
        <route edges="edgeId_Shape02_4_1_St" color="cyan"/>
    </vehicle>
    <vehicle id="vehicle_3" depart="0.00" departPos="6.00">
        <route edges="edgeId_Shape01_1_1_St" color="cyan"/>
    </vehicle>
    <vehicle id="vehicle_4" depart="0.00">
        <route edges="edgeId_Shape04_2_1_St" color="cyan"/>
    </vehicle>
    <vehicle id="vehicle_5" depart="0.00" departPos="6.00">
        <route edges="edgeId_Shape05_5_1_St" color="cyan"/>
    </vehicle>
    <vehicle id="vehicle_6" depart="0.00">
        <route edges="edgeId_Shape02_4_1_St" color="cyan"/>
    </vehicle>
    <vehicle id="vehicle_7" depart="0.00">
        <route edges="edgeId_Shape01_1_1_St" color="cyan"/>
    </vehicle>
    <vehicle id="vehicle_8" depart="0.00" departPos="6.00">
        <route edges="edgeId_Shape04_2_1_St" color="cyan"/>
    </vehicle>
    <vehicle id="vehicle_9" depart="0.00" departPos="18.00">
        <route edges="edgeId_Shape04_2_1_St" color="cyan"/>
    </vehicle>
</routes>
