<routes>
   <vType id="car" type="passenger" length="5" accel="3.5" decel="2.2" sigma="1.0"/>
   <flow id="carflow0" type="car" beg="0" end="0" number="5" from="E0" to="E4" color="0,1,0"/>
   <flow id="carflow1" type="car" beg="1" end="1" number="4" from="E1" to="E5" color="1,0,0"/>
   <flow id="carflow2" type="car" beg="2" end="2" number="3" from="E2" to="E6" color="0,0,1"/>
   <flow id="carflow3" type="car" beg="3" end="3" number="2" from="E3" to="E7" color="0,1,0"/>
   
</routes>