<?xml version="1.0" encoding="UTF-8"?>

<!-- generated on 2022-06-17 15:40:03 by Eclipse SUMO netedit Version 1.10.0
<configuration xmlns:xsi="http://www.w3.org/2001/XMLSchema-instance" xsi:noNamespaceSchemaLocation="http://sumo.dlr.de/xsd/netconvertConfiguration.xsd">

    <input>
        <sumo-net-file value="D:\@Tll_Training\SUMO_Projects\NewHSKmultiLanesTLStest\map.net.xml"/>
    </input>

    <output>
        <output-file value="D:\@Tll_Training\SUMO_Projects\NewHSKmultiLanesTLStest\map.net.xml"/>
    </output>

    <processing>
        <geometry.min-radius.fix.railways value="false"/>
        <geometry.max-grade.fix value="false"/>
        <offset.disable-normalization value="true"/>
        <lefthand value="false"/>
    </processing>

    <junctions>
        <no-turnarounds value="true"/>
        <junctions.corner-detail value="5"/>
        <junctions.limit-turn-speed value="5.5"/>
        <rectangular-lane-cut value="false"/>
    </junctions>

    <pedestrian>
        <walkingareas value="false"/>
    </pedestrian>

    <netedit>
        <route-files value="D:\@Tll_Training\SUMO_Projects\NewHSKmultiLanesTLStest\cars.rou.xml"/>
    </netedit>

    <report>
        <aggregate-warnings value="5"/>
    </report>

</configuration>
-->

<routes xmlns:xsi="http://www.w3.org/2001/XMLSchema-instance" xsi:noNamespaceSchemaLocation="http://sumo.dlr.de/xsd/routes_file.xsd">
    <trip id="0" depart="0.00" departLane="1" color="128,0,0" from="edgeId_Shape304_2_St" to="edgeId_Shape322_3_St"/>
    <trip id="t_1" depart="0.00" departLane="2" color="0,128,0" from="edgeId_Shape304_2_St" to="edgeId_Shape024_5_St"/>
    <trip id="t_10" depart="0.00" departLane="1" color="red" from="edgeId_Shape308_1_St" to="edgeId_Shape307_6_St"/>
    <trip id="t_11" depart="0.00" departLane="2" color="green" from="edgeId_Shape308_1_St" to="edgeId_Shape307_6_St"/>
    <trip id="t_13" depart="0.00" departLane="0" departPos="6.00" color="blue" from="edgeId_Shape308_1_St" to="edgeId_Shape307_6_St"/>
    <trip id="t_14" depart="0.00" departLane="3" color="blue" from="edgeId_Shape308_1_St" to="edgeId_Shape024_5_St"/>
    <trip id="t_15" depart="0.00" departLane="1" departPos="6.00" from="edgeId_Shape308_1_St" to="edgeId_Shape024_5_St"/>
    <trip id="t_16" depart="0.00" departLane="2" departPos="6.00" color="cyan" from="edgeId_Shape308_1_St" to="edgeId_Shape024_5_St"/>
    <trip id="t_2" depart="0.00" departLane="0" color="magenta" from="edgeId_Shape304_2_St" to="edgeId_Shape307_6_St"/>
    <trip id="t_3" depart="0.00" departLane="3" color="0,0,128" from="edgeId_Shape304_2_St" to="edgeId_Shape024_5_St"/>
    <trip id="t_4" depart="0.00" departLane="4" color="128,128,0" from="edgeId_Shape304_2_St" to="edgeId_Shape307_6_St"/>
    <trip id="t_5" depart="0.00" departLane="0" departPos="6.00" color="128,0,128" from="edgeId_Shape304_2_St" to="edgeId_Shape024_5_St"/>
    <trip id="t_6" depart="0.00" departLane="1" departPos="6.00" color="128,0,128" from="edgeId_Shape317_4_St" to="edgeId_Shape322_3_St"/>
    <trip id="t_7" depart="0.00" departLane="0" color="0,128,128" from="edgeId_Shape317_4_St" to="edgeId_Shape024_5_St"/>
    <trip id="t_8" depart="0.00" departLane="1" color="128,0,0" from="edgeId_Shape317_4_St" to="edgeId_Shape322_3_St"/>
    <trip id="t_9" depart="0.00" departLane="0" departPos="6.00" color="0,128,0" from="edgeId_Shape317_4_St" to="edgeId_Shape024_5_St"/>
</routes>
