<?xml version="1.0" encoding="UTF-8"?>

<!-- generated on 2022-06-21 11:20:10 by Eclipse SUMO netedit Version 1.10.0
<configuration xmlns:xsi="http://www.w3.org/2001/XMLSchema-instance" xsi:noNamespaceSchemaLocation="http://sumo.dlr.de/xsd/netconvertConfiguration.xsd">

    <input>
        <sumo-net-file value="D:\@Tll_Training\SUMO_Projects\SumoLaneSeperateAndCombine\seperate\SplineXMLForSUMOTrafficLanes.net.xml"/>
    </input>

    <output>
        <output-file value="D:\@Tll_Training\SUMO_Projects\SumoLaneSeperateAndCombine\seperate\SplineXMLForSUMOTrafficLanes.net.xml"/>
    </output>

    <processing>
        <geometry.min-radius.fix.railways value="false"/>
        <geometry.max-grade.fix value="false"/>
        <offset.disable-normalization value="true"/>
        <lefthand value="false"/>
    </processing>

    <junctions>
        <no-internal-links value="true"/>
        <no-turnarounds value="true"/>
        <junctions.corner-detail value="5"/>
        <junctions.limit-turn-speed value="5.5"/>
        <rectangular-lane-cut value="false"/>
    </junctions>

    <pedestrian>
        <walkingareas value="false"/>
    </pedestrian>

    <report>
        <aggregate-warnings value="5"/>
    </report>

</configuration>
-->

<net version="1.9" junctionCornerDetail="5" limitTurnSpeed="5.50" xmlns:xsi="http://www.w3.org/2001/XMLSchema-instance" xsi:noNamespaceSchemaLocation="http://sumo.dlr.de/xsd/net_file.xsd">

    <location netOffset="-274535.29,-4297431.43" convBoundary="3494.22,102.74,3579.21,114.65" origBoundary="-77.596256,38.797200,-77.215237,38.890060" projParameter="+proj=utm +zone=18 +ellps=WGS84 +datum=WGS84 +units=m +no_defs"/>

    <type id="highway.bridleway" priority="1" numLanes="1" speed="2.78" allow="pedestrian" oneway="1" width="2.00"/>
    <type id="highway.bus_guideway" priority="1" numLanes="1" speed="27.78" allow="bus" oneway="1"/>
    <type id="highway.cycleway" priority="1" numLanes="1" speed="8.33" allow="bicycle" oneway="1" width="1.00"/>
    <type id="highway.footway" priority="1" numLanes="1" speed="2.78" allow="pedestrian" oneway="1" width="2.00"/>
    <type id="highway.ford" priority="1" numLanes="1" speed="2.78" allow="army" oneway="1"/>
    <type id="highway.living_street" priority="2" numLanes="1" speed="2.78" disallow="tram rail_urban rail rail_electric rail_fast ship" oneway="1"/>
    <type id="highway.motorway" priority="14" numLanes="2" speed="39.44" allow="private emergency authority army vip passenger hov taxi bus coach delivery truck trailer motorcycle evehicle custom1 custom2" oneway="1"/>
    <type id="highway.motorway_link" priority="9" numLanes="1" speed="22.22" allow="private emergency authority army vip passenger hov taxi bus coach delivery truck trailer motorcycle evehicle custom1 custom2" oneway="1"/>
    <type id="highway.path" priority="1" numLanes="1" speed="2.78" allow="pedestrian bicycle" oneway="1" width="2.00"/>
    <type id="highway.pedestrian" priority="1" numLanes="1" speed="2.78" allow="pedestrian" oneway="1" width="2.00"/>
    <type id="highway.primary" priority="12" numLanes="2" speed="27.78" disallow="tram rail_urban rail rail_electric rail_fast ship" oneway="1"/>
    <type id="highway.primary_link" priority="7" numLanes="1" speed="22.22" disallow="tram rail_urban rail rail_electric rail_fast ship" oneway="1"/>
    <type id="highway.raceway" priority="15" numLanes="2" speed="83.33" allow="vip" oneway="1"/>
    <type id="highway.residential" priority="3" numLanes="1" speed="13.89" disallow="tram rail_urban rail rail_electric rail_fast ship" oneway="1"/>
    <type id="highway.secondary" priority="11" numLanes="1" speed="27.78" disallow="tram rail_urban rail rail_electric rail_fast ship" oneway="1"/>
    <type id="highway.secondary_link" priority="6" numLanes="1" speed="22.22" disallow="tram rail_urban rail rail_electric rail_fast ship" oneway="1"/>
    <type id="highway.service" priority="1" numLanes="1" speed="5.56" allow="pedestrian delivery bicycle" oneway="1"/>
    <type id="highway.stairs" priority="1" numLanes="1" speed="1.39" allow="pedestrian" oneway="1" width="2.00"/>
    <type id="highway.step" priority="1" numLanes="1" speed="1.39" allow="pedestrian" oneway="1" width="2.00"/>
    <type id="highway.steps" priority="1" numLanes="1" speed="1.39" allow="pedestrian" oneway="1" width="2.00"/>
    <type id="highway.tertiary" priority="10" numLanes="1" speed="22.22" disallow="tram rail_urban rail rail_electric rail_fast ship" oneway="1"/>
    <type id="highway.tertiary_link" priority="5" numLanes="1" speed="22.22" disallow="tram rail_urban rail rail_electric rail_fast ship" oneway="1"/>
    <type id="highway.track" priority="1" numLanes="1" speed="5.56" allow="pedestrian motorcycle moped bicycle" oneway="1"/>
    <type id="highway.trunk" priority="13" numLanes="2" speed="27.78" disallow="pedestrian bicycle tram rail_urban rail rail_electric rail_fast ship" oneway="1"/>
    <type id="highway.trunk_link" priority="8" numLanes="1" speed="22.22" disallow="pedestrian bicycle tram rail_urban rail rail_electric rail_fast ship" oneway="1"/>
    <type id="highway.unclassified" priority="4" numLanes="1" speed="13.89" disallow="tram rail_urban rail rail_electric rail_fast ship" oneway="1"/>
    <type id="highway.unsurfaced" priority="1" numLanes="1" speed="8.33" disallow="tram rail_urban rail rail_electric rail_fast ship" oneway="1"/>
    <type id="railway.highspeed" priority="21" numLanes="1" speed="69.44" allow="rail_fast" oneway="1"/>
    <type id="railway.light_rail" priority="19" numLanes="1" speed="27.78" allow="rail_urban" oneway="1"/>
    <type id="railway.preserved" priority="16" numLanes="1" speed="27.78" allow="rail" oneway="1"/>
    <type id="railway.rail" priority="20" numLanes="1" speed="44.44" allow="rail" oneway="1"/>
    <type id="railway.subway" priority="18" numLanes="1" speed="27.78" allow="rail_urban" oneway="1"/>
    <type id="railway.tram" priority="17" numLanes="1" speed="13.89" allow="tram" oneway="1"/>

    <edge id="edgeId_Shape01_1_1_St" from="JuctionFrom_Shape01_1_1_St" to="JuctionTo_Shape01_1_1_Ed" priority="14" type="highway.motorway" spreadType="center" shape="3579.21,102.74,-25.03 3574.99,102.78,-24.92 3569.99,102.83,-24.79 3564.99,102.88,-24.67 3560.00,102.92,-24.56 3555.00,102.97,-24.46 3550.00,103.01,-24.35 3545.00,103.06,-24.25 3540.00,103.11,-24.15 3535.00,103.15,-24.04 3530.01,103.20,-23.92 3525.01,103.25,-23.84 3520.01,103.29,-23.77 3515.01,103.34,-23.72 3510.01,103.39,-23.67 3505.01,103.43,-23.59 3500.01,103.48,-23.51 3495.01,103.52,-23.47">
        <lane id="edgeId_Shape01_1_1_St_0" index="0" allow="private emergency authority army vip passenger hov taxi bus coach delivery truck trailer motorcycle evehicle custom1 custom2" speed="18.06" length="84.22" shape="3579.21,102.74,-25.03 3574.99,102.78,-24.92 3569.99,102.83,-24.79 3564.99,102.88,-24.67 3560.00,102.92,-24.56 3555.00,102.97,-24.46 3550.00,103.01,-24.35 3545.00,103.06,-24.25 3540.00,103.11,-24.15 3535.00,103.15,-24.04 3530.01,103.20,-23.92 3525.01,103.25,-23.84 3520.01,103.29,-23.77 3515.01,103.34,-23.72 3510.01,103.39,-23.67 3505.01,103.43,-23.59 3500.01,103.48,-23.51 3495.01,103.52,-23.47"/>
    </edge>
    <edge id="edgeId_Shape02_4_1_St" from="JuctionFrom_Shape02_4_1_St" to="JuctionTo_Shape02_4_1_Ed" priority="14" type="highway.motorway" spreadType="center" shape="3579.21,106.15,-25.03 3574.21,106.25,-24.90 3569.22,106.34,-24.78 3564.22,106.42,-24.66 3559.22,106.51,-24.54 3554.22,106.60,-24.44 3549.23,106.69,-24.33 3544.23,106.78,-24.23 3539.23,106.86,-24.12 3534.23,106.95,-24.00 3529.23,107.04,-23.88 3524.24,107.13,-23.81 3519.24,107.22,-23.74 3514.24,107.30,-23.69 3509.24,107.39,-23.65 3504.24,107.48,-23.55 3499.24,107.57,-23.50 3494.24,107.65,-23.46">
        <lane id="edgeId_Shape02_4_1_St_0" index="0" allow="private emergency authority army vip passenger hov taxi bus coach delivery truck trailer motorcycle evehicle custom1 custom2" speed="18.06" length="85.00" shape="3579.21,106.15,-25.03 3574.21,106.25,-24.90 3569.22,106.34,-24.78 3564.22,106.42,-24.66 3559.22,106.51,-24.54 3554.22,106.60,-24.44 3549.23,106.69,-24.33 3544.23,106.78,-24.23 3539.23,106.86,-24.12 3534.23,106.95,-24.00 3529.23,107.04,-23.88 3524.24,107.13,-23.81 3519.24,107.22,-23.74 3514.24,107.30,-23.69 3509.24,107.39,-23.65 3504.24,107.48,-23.55 3499.24,107.57,-23.50 3494.24,107.65,-23.46"/>
    </edge>
    <edge id="edgeId_Shape04_2_1_St" from="JuctionFrom_Shape04_2_1_St" to="JuctionTo_Shape04_2_1_Ed" priority="14" type="highway.motorway" spreadType="center" shape="3579.21,113.88,-25.03 3574.21,113.95,-24.91 3569.21,114.02,-24.79 3564.21,114.15,-24.67 3559.22,114.30,-24.55 3554.22,114.45,-24.44 3549.22,114.58,-24.32 3544.22,114.58,-24.20 3539.22,114.58,-24.08 3534.22,114.59,-23.96 3529.22,114.59,-23.84 3524.22,114.59,-23.77 3519.22,114.59,-23.70 3514.22,114.61,-23.65 3509.22,114.64,-23.61 3504.22,114.65,-23.56 3499.22,114.64,-23.51 3494.22,114.62,-23.47">
        <lane id="edgeId_Shape04_2_1_St_0" index="0" allow="private emergency authority army vip passenger hov taxi bus coach delivery truck trailer motorcycle evehicle custom1 custom2" speed="18.06" length="85.02" shape="3579.21,113.88,-25.03 3574.21,113.95,-24.91 3569.21,114.02,-24.79 3564.21,114.15,-24.67 3559.22,114.30,-24.55 3554.22,114.45,-24.44 3549.22,114.58,-24.32 3544.22,114.58,-24.20 3539.22,114.58,-24.08 3534.22,114.59,-23.96 3529.22,114.59,-23.84 3524.22,114.59,-23.77 3519.22,114.59,-23.70 3514.22,114.61,-23.65 3509.22,114.64,-23.61 3504.22,114.65,-23.56 3499.22,114.64,-23.51 3494.22,114.62,-23.47"/>
    </edge>
    <edge id="edgeId_Shape05_5_1_St" from="JuctionFrom_Shape05_5_1_St" to="JuctionTo_Shape05_5_1_Ed" priority="14" type="highway.motorway" spreadType="center" shape="3579.21,109.76,-25.03 3574.21,109.84,-24.91 3569.22,109.93,-24.79 3564.22,110.00,-24.67 3559.22,110.08,-24.55 3554.22,110.16,-24.43 3549.22,110.23,-24.33 3544.23,110.31,-24.23 3539.23,110.39,-24.10 3534.23,110.46,-23.98 3529.23,110.54,-23.86 3524.23,110.61,-23.79 3519.24,110.69,-23.72 3514.24,110.77,-23.67 3509.24,110.84,-23.63 3504.24,110.92,-23.55 3499.24,111.00,-23.51 3494.24,111.07,-23.46">
        <lane id="edgeId_Shape05_5_1_St_0" index="0" allow="private emergency authority army vip passenger hov taxi bus coach delivery truck trailer motorcycle evehicle custom1 custom2" speed="18.06" length="85.00" shape="3579.21,109.76,-25.03 3574.21,109.84,-24.91 3569.22,109.93,-24.79 3564.22,110.00,-24.67 3559.22,110.08,-24.55 3554.22,110.16,-24.43 3549.22,110.23,-24.33 3544.23,110.31,-24.23 3539.23,110.39,-24.10 3534.23,110.46,-23.98 3529.23,110.54,-23.86 3524.23,110.61,-23.79 3519.24,110.69,-23.72 3514.24,110.77,-23.67 3509.24,110.84,-23.63 3504.24,110.92,-23.55 3499.24,111.00,-23.51 3494.24,111.07,-23.46"/>
    </edge>

    <junction id="JuctionFrom_Shape01_1_1_St" type="dead_end" x="3579.21" y="102.74" z="-25.03" incLanes="" intLanes="" shape="3579.19,101.14,-25.03 3579.23,104.34,-25.03"/>
    <junction id="JuctionFrom_Shape02_4_1_St" type="dead_end" x="3579.21" y="106.15" z="-25.03" incLanes="" intLanes="" shape="3579.18,104.55,-25.03 3579.24,107.75,-25.03"/>
    <junction id="JuctionFrom_Shape04_2_1_St" type="dead_end" x="3579.21" y="113.88" z="-25.03" incLanes="" intLanes="" shape="3579.19,112.28,-25.03 3579.23,115.48,-25.03"/>
    <junction id="JuctionFrom_Shape05_5_1_St" type="dead_end" x="3579.21" y="109.76" z="-25.03" incLanes="" intLanes="" shape="3579.18,108.16,-25.03 3579.24,111.36,-25.03"/>
    <junction id="JuctionTo_Shape01_1_1_Ed" type="dead_end" x="3495.01" y="103.52" z="-23.47" incLanes="edgeId_Shape01_1_1_St_0" intLanes="" shape="3495.02,105.12,-23.47 3495.00,101.92,-23.47"/>
    <junction id="JuctionTo_Shape02_4_1_Ed" type="dead_end" x="3494.24" y="107.65" z="-23.46" incLanes="edgeId_Shape02_4_1_St_0" intLanes="" shape="3494.27,109.25,-23.46 3494.21,106.05,-23.46"/>
    <junction id="JuctionTo_Shape04_2_1_Ed" type="dead_end" x="3494.22" y="114.62" z="-23.47" incLanes="edgeId_Shape04_2_1_St_0" intLanes="" shape="3494.21,116.22,-23.47 3494.23,113.02,-23.47"/>
    <junction id="JuctionTo_Shape05_5_1_Ed" type="dead_end" x="3494.24" y="111.07" z="-23.46" incLanes="edgeId_Shape05_5_1_St_0" intLanes="" shape="3494.26,112.67,-23.46 3494.22,109.47,-23.46"/>

</net>
