<?xml version="1.0" encoding="UTF-8"?>

<!-- generated on 2022-06-10 18:10:31 by Eclipse SUMO netedit Version 1.12.0
-->

<routes xmlns:xsi="http://www.w3.org/2001/XMLSchema-instance" xsi:noNamespaceSchemaLocation="http://sumo.dlr.de/xsd/routes_file.xsd">
    <trip id="t_0" depart="0.00" from="edgeId_Shape304_2_St" to="edgeId_Shape307_6_St"/>
    <trip id="t_1" depart="0.00" from="edgeId_Shape304_2_St" to="edgeId_Shape024_5_St"/>
    <trip id="t_10" depart="0.00" from="edgeId_Shape304_2_St" to="edgeId_Shape322_3_St"/>
    <trip id="t_11" depart="0.00" from="edgeId_Shape308_1_St" to="edgeId_Shape307_6_St"/>
    <trip id="t_12" depart="0.00" from="edgeId_Shape308_1_St" to="edgeId_Shape024_5_St"/>
    <trip id="t_13" depart="0.00" from="edgeId_Shape308_1_St" to="edgeId_Shape024_5_St"/>
    <trip id="t_14" depart="0.00" from="edgeId_Shape308_1_St" to="edgeId_Shape307_6_St"/>
    <trip id="t_15" depart="0.00" from="edgeId_Shape308_1_St" to="edgeId_Shape307_6_St"/>
    <trip id="t_2" depart="0.00" from="edgeId_Shape304_2_St" to="edgeId_Shape322_3_St"/>
    <trip id="t_3" depart="0.00" from="edgeId_Shape308_1_St" to="edgeId_Shape307_6_St"/>
    <trip id="t_4" depart="0.00" from="edgeId_Shape308_1_St" to="edgeId_Shape024_5_St"/>
    <trip id="t_5" depart="0.00" from="edgeId_Shape304_2_St" to="edgeId_Shape307_6_St"/>
    <trip id="t_6" depart="0.00" from="edgeId_Shape304_2_St" to="edgeId_Shape307_6_St"/>
    <trip id="t_7" depart="0.00" from="edgeId_Shape304_2_St" to="edgeId_Shape307_6_St"/>
    <trip id="t_8" depart="0.00" from="edgeId_Shape304_2_St" to="edgeId_Shape024_5_St"/>
    <trip id="t_9" depart="0.00" from="edgeId_Shape304_2_St" to="edgeId_Shape024_5_St"/>
</routes>
