<?xml version="1.0" encoding="UTF-8"?>

<configuration xmlns:xsi="http://www.w3.org/2001/XMLSchema-instance" xsi:noNamespaceSchemaLocation="http://sumo.dlr.de/xsd/duarouterConfiguration.xsd">
     <input>
         <net-file value="SplineXMLForSUMOTrafficLanes.net.xml"/> 		
         <route-files value="trips.trips.xml"/>
     </input>
	 
    <time>
        <begin value="0"/>
        <end value="100"/>
        <step-length value="0.4"/>
    </time> 
 
 </configuration>
