<?xml version="1.0" encoding="UTF-8"?>

<!-- generated on 2022-07-01 16:24:59 by Eclipse SUMO netedit Version 1.10.0
<configuration xmlns:xsi="http://www.w3.org/2001/XMLSchema-instance" xsi:noNamespaceSchemaLocation="http://sumo.dlr.de/xsd/netconvertConfiguration.xsd">

    <input>
        <sumo-net-file value="D:\@Tll_Training\SUMO_Projects\TLS-LinkIndex\SplineXMLForSUMOTrafficLanes.net.xml"/>
    </input>

    <output>
        <output-file value="D:\@Tll_Training\SUMO_Projects\TLS-LinkIndex\SplineXMLForSUMOTrafficLanes.net.xml"/>
    </output>

    <processing>
        <geometry.min-radius.fix.railways value="false"/>
        <geometry.max-grade.fix value="false"/>
        <offset.disable-normalization value="true"/>
        <lefthand value="false"/>
    </processing>

    <junctions>
        <no-turnarounds value="true"/>
        <junctions.corner-detail value="5"/>
        <junctions.limit-turn-speed value="5.5"/>
        <rectangular-lane-cut value="false"/>
    </junctions>

    <pedestrian>
        <walkingareas value="false"/>
    </pedestrian>

    <report>
        <aggregate-warnings value="5"/>
    </report>

</configuration>
-->

<net version="1.9" junctionCornerDetail="5" limitTurnSpeed="5.50" xmlns:xsi="http://www.w3.org/2001/XMLSchema-instance" xsi:noNamespaceSchemaLocation="http://sumo.dlr.de/xsd/net_file.xsd">

    <location netOffset="0.00,0.00" convBoundary="-4324.44,-833.80,3633.02,1265.82" origBoundary="-4324.44,-833.80,3633.02,1265.82" projParameter="!"/>

    <edge id=":JuctionFrom_Shape031_45_1_St-JuctionTo_Shape046_143_1_Ed_0" function="internal">
        <lane id=":JuctionFrom_Shape031_45_1_St-JuctionTo_Shape046_143_1_Ed_0_0" index="0" allow="private emergency authority army vip passenger hov taxi bus coach delivery truck trailer motorcycle evehicle custom1 custom2" speed="18.06" length="0.29" shape="-3459.46,924.53,-0.67 -3459.46,924.83,-0.67"/>
    </edge>
    <edge id=":JuctionFrom_Shape033_41_1_St-JuctionTo_Shape042_161_1_Ed_0" function="internal">
        <lane id=":JuctionFrom_Shape033_41_1_St-JuctionTo_Shape042_161_1_Ed_0_0" index="0" allow="private emergency authority army vip passenger hov taxi bus coach delivery truck trailer motorcycle evehicle custom1 custom2" speed="18.06" length="0.24" shape="-3455.61,925.06,-0.75 -3455.60,925.30,-0.75"/>
    </edge>
    <edge id=":JuctionFrom_Shape034_47_1_St-JuctionTo_Shape048_156_1_Ed_0" function="internal">
        <lane id=":JuctionFrom_Shape034_47_1_St-JuctionTo_Shape048_156_1_Ed_0_0" index="0" allow="private emergency authority army vip passenger hov taxi bus coach delivery truck trailer motorcycle evehicle custom1 custom2" speed="18.06" length="0.29" shape="-3474.60,924.25,-0.10 -3474.62,924.55,-0.10"/>
    </edge>
    <edge id=":JuctionFrom_Shape035_43_1_St-JuctionTo_Shape044_150_1_Ed_0" function="internal">
        <lane id=":JuctionFrom_Shape035_43_1_St-JuctionTo_Shape044_150_1_Ed_0_0" index="0" allow="private emergency authority army vip passenger hov taxi bus coach delivery truck trailer motorcycle evehicle custom1 custom2" speed="18.06" length="0.30" shape="-3430.28,924.13,-1.09 -3430.34,924.43,-1.09"/>
    </edge>
    <edge id=":JuctionFrom_Shape036_42_1_St-JuctionTo_Shape043_151_1_Ed_0" function="internal">
        <lane id=":JuctionFrom_Shape036_42_1_St-JuctionTo_Shape043_151_1_Ed_0_0" index="0" allow="private emergency authority army vip passenger hov taxi bus coach delivery truck trailer motorcycle evehicle custom1 custom2" speed="18.06" length="0.30" shape="-3442.81,923.69,-1.04 -3442.83,923.99,-1.04"/>
    </edge>
    <edge id=":JuctionFrom_Shape038_38_1_St-JuctionTo_Shape039_39_1_Ed_0" function="internal">
        <lane id=":JuctionFrom_Shape038_38_1_St-JuctionTo_Shape039_39_1_Ed_0_0" index="0" allow="private emergency authority army vip passenger hov taxi bus coach delivery truck trailer motorcycle evehicle custom1 custom2" speed="18.06" length="0.30" shape="-3428.43,1179.51,-0.42 -3428.43,1179.81,-0.42"/>
    </edge>
    <edge id=":JuctionFrom_Shape039_39_1_St-JuctionTo_Shape040_163_1_Ed_0" function="internal">
        <lane id=":JuctionFrom_Shape039_39_1_St-JuctionTo_Shape040_163_1_Ed_0_0" index="0" allow="private emergency authority army vip passenger hov taxi bus coach delivery truck trailer motorcycle evehicle custom1 custom2" speed="18.06" length="0.28" shape="-3426.37,924.85,-1.10 -3426.43,925.13,-1.10"/>
    </edge>
    <edge id=":JuctionFrom_Shape043_151_1_St-JuctionTo_Shape152_153_1_Ed_0" function="internal">
        <lane id=":JuctionFrom_Shape043_151_1_St-JuctionTo_Shape152_153_1_Ed_0_0" index="0" allow="private emergency authority army vip passenger hov taxi bus coach delivery truck trailer motorcycle evehicle custom1 custom2" speed="18.06" length="0.30" shape="-3440.10,878.31,-0.52 -3440.12,878.61,-0.52"/>
    </edge>
    <edge id=":JuctionFrom_Shape044_150_1_St-JuctionTo_Shape151_192_1_Ed_0" function="internal">
        <lane id=":JuctionFrom_Shape044_150_1_St-JuctionTo_Shape151_192_1_Ed_0_0" index="0" allow="private emergency authority army vip passenger hov taxi bus coach delivery truck trailer motorcycle evehicle custom1 custom2" speed="18.06" length="0.30" shape="-3425.03,878.94,-0.93 -3425.05,879.24,-0.93"/>
    </edge>
    <edge id=":JuctionFrom_Shape046_143_1_St-JuctionTo_Shape144_144_1_Ed_0" function="internal">
        <lane id=":JuctionFrom_Shape046_143_1_St-JuctionTo_Shape144_144_1_Ed_0_0" index="0" allow="private emergency authority army vip passenger hov taxi bus coach delivery truck trailer motorcycle evehicle custom1 custom2" speed="18.06" length="0.30" shape="-3459.97,881.46,-0.52 -3459.97,881.76,-0.52"/>
    </edge>
    <edge id=":JuctionFrom_Shape061_85_1_St-JuctionTo_Shape086_331_1_Ed_0" function="internal">
        <lane id=":JuctionFrom_Shape061_85_1_St-JuctionTo_Shape086_331_1_Ed_0_0" index="0" allow="private emergency authority army vip passenger hov taxi bus coach delivery truck trailer motorcycle evehicle custom1 custom2" speed="18.06" length="0.30" shape="3581.40,56.80,-29.16 3581.70,56.80,-29.16"/>
    </edge>
    <edge id=":JuctionFrom_Shape062_87_1_St-JuctionTo_Shape088_329_1_Ed_0" function="internal">
        <lane id=":JuctionFrom_Shape062_87_1_St-JuctionTo_Shape088_329_1_Ed_0_0" index="0" allow="private emergency authority army vip passenger hov taxi bus coach delivery truck trailer motorcycle evehicle custom1 custom2" speed="18.06" length="0.22" shape="3580.94,53.67,-29.17 3581.16,53.67,-29.17"/>
    </edge>
    <edge id=":JuctionFrom_Shape067_79_1_St-JuctionTo_Shape080_342_1_Ed_0" function="internal">
        <lane id=":JuctionFrom_Shape067_79_1_St-JuctionTo_Shape080_342_1_Ed_0_0" index="0" allow="private emergency authority army vip passenger hov taxi bus coach delivery truck trailer motorcycle evehicle custom1 custom2" speed="18.06" length="0.30" shape="3581.89,3.99,-26.37 3582.19,4.01,-26.37"/>
    </edge>
    <edge id=":JuctionFrom_Shape070_86_1_St-JuctionTo_Shape087_330_1_Ed_0" function="internal">
        <lane id=":JuctionFrom_Shape070_86_1_St-JuctionTo_Shape087_330_1_Ed_0_0" index="0" allow="private emergency authority army vip passenger hov taxi bus coach delivery truck trailer motorcycle evehicle custom1 custom2" speed="18.06" length="0.28" shape="3580.52,39.35,-29.18 3580.80,39.35,-29.18"/>
    </edge>
    <edge id=":JuctionFrom_Shape072_74_1_St-JuctionTo_Shape075_362_1_Ed_0" function="internal">
        <lane id=":JuctionFrom_Shape072_74_1_St-JuctionTo_Shape075_362_1_Ed_0_0" index="0" allow="private emergency authority army vip passenger hov taxi bus coach delivery truck trailer motorcycle evehicle custom1 custom2" speed="18.06" length="0.30" shape="3580.50,11.41,-26.36 3580.80,11.43,-26.36"/>
    </edge>
    <edge id=":JuctionFrom_Shape075_362_1_St-JuctionTo_Shape365_364_1_Ed_0" function="internal">
        <lane id=":JuctionFrom_Shape075_362_1_St-JuctionTo_Shape365_364_1_Ed_0_0" index="0" allow="private emergency authority army vip passenger hov taxi bus coach delivery truck trailer motorcycle evehicle custom1 custom2" speed="18.06" length="0.30" shape="3523.87,8.08,-25.17 3524.17,8.10,-25.17"/>
    </edge>
    <edge id=":JuctionFrom_Shape080_342_1_St-JuctionTo_Shape343_458_1_Ed_0" function="internal">
        <lane id=":JuctionFrom_Shape080_342_1_St-JuctionTo_Shape343_458_1_Ed_0_0" index="0" allow="private emergency authority army vip passenger hov taxi bus coach delivery truck trailer motorcycle evehicle custom1 custom2" speed="18.06" length="0.30" shape="3525.67,1.38,-25.23 3525.97,1.40,-25.23"/>
    </edge>
    <edge id=":JuctionFrom_Shape108_106_1_St-JuctionFrom_Shape107_108_1_St-JuctionTo_Shape109_110_1_Ed_0" function="internal">
        <lane id=":JuctionFrom_Shape108_106_1_St-JuctionFrom_Shape107_108_1_St-JuctionTo_Shape109_110_1_Ed_0_0" index="0" allow="private emergency authority army vip passenger hov taxi bus coach delivery truck trailer motorcycle evehicle custom1 custom2" speed="18.06" length="12.69" shape="-4280.82,-68.11,-6.49 -4281.02,-71.47,-6.55 -4281.59,-74.36,-6.59 -4282.46,-77.20,-6.63 -4283.59,-80.41,-6.69"/>
    </edge>
    <edge id=":JuctionFrom_Shape108_106_1_St-JuctionFrom_Shape107_108_1_St-JuctionTo_Shape109_110_1_Ed_1" function="internal">
        <lane id=":JuctionFrom_Shape108_106_1_St-JuctionFrom_Shape107_108_1_St-JuctionTo_Shape109_110_1_Ed_1_0" index="0" allow="private emergency authority army vip passenger hov taxi bus coach delivery truck trailer motorcycle evehicle custom1 custom2" speed="18.06" length="12.62" shape="-4280.82,-68.11,-6.49 -4280.73,-71.48,-6.53 -4280.50,-74.40,-6.56 -4280.18,-77.32,-6.59 -4279.82,-80.68,-6.62"/>
    </edge>
    <edge id=":JuctionFrom_Shape109_110_1_St-JuctionTo_Shape111_113_1_Ed-JuctionTo_Shape110_454_1_Ed_0" function="internal">
        <lane id=":JuctionFrom_Shape109_110_1_St-JuctionTo_Shape111_113_1_Ed-JuctionTo_Shape110_454_1_Ed_0_0" index="0" allow="private emergency authority army vip passenger hov taxi bus coach delivery truck trailer motorcycle evehicle custom1 custom2" speed="18.06" length="9.53" shape="-4280.47,24.84,-5.43 -4280.58,15.31,-5.53"/>
    </edge>
    <edge id=":JuctionFrom_Shape109_110_1_St-JuctionTo_Shape111_113_1_Ed-JuctionTo_Shape110_454_1_Ed_1" function="internal">
        <lane id=":JuctionFrom_Shape109_110_1_St-JuctionTo_Shape111_113_1_Ed-JuctionTo_Shape110_454_1_Ed_1_0" index="0" allow="private emergency authority army vip passenger hov taxi bus coach delivery truck trailer motorcycle evehicle custom1 custom2" speed="11.26" length="9.80" shape="-4284.43,23.93,-5.49 -4282.56,21.70,-5.50 -4281.35,20.02,-5.51 -4280.72,18.13,-5.52 -4280.58,15.31,-5.53"/>
    </edge>
    <edge id=":JuctionFrom_Shape114_109_1_St-JuctionTo_Shape112_111_1_Ed-JuctionFrom_Shape113_112_1_St_0" function="internal">
        <lane id=":JuctionFrom_Shape114_109_1_St-JuctionTo_Shape112_111_1_Ed-JuctionFrom_Shape113_112_1_St_0_0" index="0" allow="private emergency authority army vip passenger hov taxi bus coach delivery truck trailer motorcycle evehicle custom1 custom2" speed="17.53" length="14.27" shape="-4280.46,90.50,-4.67 -4280.74,86.88,-4.72 -4281.50,83.47,-4.77 -4282.73,80.19,-4.82 -4284.40,76.95,-4.88"/>
    </edge>
    <edge id=":JuctionFrom_Shape114_109_1_St-JuctionTo_Shape112_111_1_Ed-JuctionFrom_Shape113_112_1_St_1" function="internal">
        <lane id=":JuctionFrom_Shape114_109_1_St-JuctionTo_Shape112_111_1_Ed-JuctionFrom_Shape113_112_1_St_1_0" index="0" allow="private emergency authority army vip passenger hov taxi bus coach delivery truck trailer motorcycle evehicle custom1 custom2" speed="18.06" length="14.09" shape="-4280.46,90.50,-4.67 -4280.38,76.42,-4.83"/>
    </edge>
    <edge id=":JuctionFrom_Shape117_114_1_St-JuctionFrom_Shape127_126_1_St-JuctionTo_Shape116_455_1_Ed_0" function="internal">
        <lane id=":JuctionFrom_Shape117_114_1_St-JuctionFrom_Shape127_126_1_St-JuctionTo_Shape116_455_1_Ed_0_0" index="0" allow="private emergency authority army vip passenger hov taxi bus coach delivery truck trailer motorcycle evehicle custom1 custom2" speed="18.06" length="14.65" shape="-4274.88,-41.86,-6.10 -4274.91,-45.54,-6.14 -4275.21,-49.16,-6.19 -4275.60,-52.78,-6.23 -4275.89,-56.46,-6.28"/>
    </edge>
    <edge id=":JuctionFrom_Shape117_114_1_St-JuctionFrom_Shape127_126_1_St-JuctionTo_Shape116_455_1_Ed_1" function="internal">
        <lane id=":JuctionFrom_Shape117_114_1_St-JuctionFrom_Shape127_126_1_St-JuctionTo_Shape116_455_1_Ed_1_0" index="0" allow="private emergency authority army vip passenger hov taxi bus coach delivery truck trailer motorcycle evehicle custom1 custom2" speed="18.06" length="14.71" shape="-4274.88,-41.86,-6.10 -4274.49,-45.53,-6.13 -4273.79,-49.11,-6.16 -4273.04,-52.69,-6.19 -4272.49,-56.36,-6.22"/>
    </edge>
    <edge id=":JuctionFrom_Shape118_120_1_St-JuctionTo_Shape121_122_1_Ed-JuctionTo_Shape119_453_1_Ed_0" function="internal">
        <lane id=":JuctionFrom_Shape118_120_1_St-JuctionTo_Shape121_122_1_Ed-JuctionTo_Shape119_453_1_Ed_0_0" index="0" allow="private emergency authority army vip passenger hov taxi bus coach delivery truck trailer motorcycle evehicle custom1 custom2" speed="18.06" length="3.04" shape="-4260.77,68.77,-4.66 -4260.82,71.81,-4.63"/>
    </edge>
    <edge id=":JuctionFrom_Shape118_120_1_St-JuctionTo_Shape121_122_1_Ed-JuctionTo_Shape119_453_1_Ed_1" function="internal">
        <lane id=":JuctionFrom_Shape118_120_1_St-JuctionTo_Shape121_122_1_Ed-JuctionTo_Shape119_453_1_Ed_1_0" index="0" allow="private emergency authority army vip passenger hov taxi bus coach delivery truck trailer motorcycle evehicle custom1 custom2" speed="18.06" length="3.04" shape="-4260.82,68.77,-4.66 -4260.82,71.81,-4.63"/>
    </edge>
    <edge id=":JuctionFrom_Shape120_121_1_St-JuctionTo_Shape122_123_1_Ed_0" function="internal">
        <lane id=":JuctionFrom_Shape120_121_1_St-JuctionTo_Shape122_123_1_Ed_0_0" index="0" allow="private emergency authority army vip passenger hov taxi bus coach delivery truck trailer motorcycle evehicle custom1 custom2" speed="18.06" length="0.10" shape="-4264.31,37.64,-5.05 -4264.31,37.64,-5.05"/>
    </edge>
    <edge id=":JuctionFrom_Shape123_119_1_St-JuctionFrom_Shape122_123_1_St-JuctionTo_Shape124_450_1_Ed_0" function="internal">
        <lane id=":JuctionFrom_Shape123_119_1_St-JuctionFrom_Shape122_123_1_St-JuctionTo_Shape124_450_1_Ed_0_0" index="0" allow="private emergency authority army vip passenger hov taxi bus coach delivery truck trailer motorcycle evehicle custom1 custom2" speed="18.06" length="19.94" shape="-4261.13,-50.15,-5.96 -4260.44,-30.22,-5.94"/>
    </edge>
    <edge id=":JuctionFrom_Shape123_119_1_St-JuctionFrom_Shape122_123_1_St-JuctionTo_Shape124_450_1_Ed_1" function="internal">
        <lane id=":JuctionFrom_Shape123_119_1_St-JuctionFrom_Shape122_123_1_St-JuctionTo_Shape124_450_1_Ed_1_0" index="0" allow="private emergency authority army vip passenger hov taxi bus coach delivery truck trailer motorcycle evehicle custom1 custom2" speed="18.06" length="19.90" shape="-4261.13,-50.15,-5.96 -4263.73,-30.42,-5.78"/>
    </edge>
    <edge id=":JuctionFrom_Shape136_2_1_St-JuctionTo_Shape131_130_1_Ed-JuctionTo_Shape130_452_1_Ed_0" function="internal">
        <lane id=":JuctionFrom_Shape136_2_1_St-JuctionTo_Shape131_130_1_Ed-JuctionTo_Shape130_452_1_Ed_0_0" index="0" allow="private emergency authority army vip passenger hov taxi bus coach delivery truck trailer motorcycle evehicle custom1 custom2" speed="18.06" length="27.79" shape="-4268.51,-121.04,-6.33 -4241.56,-114.26,-6.30"/>
    </edge>
    <edge id=":JuctionFrom_Shape136_2_1_St-JuctionTo_Shape131_130_1_Ed-JuctionTo_Shape130_452_1_Ed_1" function="internal">
        <lane id=":JuctionFrom_Shape136_2_1_St-JuctionTo_Shape131_130_1_Ed-JuctionTo_Shape130_452_1_Ed_1_0" index="0" allow="private emergency authority army vip passenger hov taxi bus coach delivery truck trailer motorcycle evehicle custom1 custom2" speed="13.77" length="27.53" shape="-4268.39,-115.75,-6.33 -4265.17,-117.32,-6.33 -4259.63,-117.60,-6.32 -4251.76,-116.58,-6.31 -4241.56,-114.26,-6.30"/>
    </edge>
    <edge id=":JuctionFrom_Shape156_33_1_St-JuctionFrom_Shape157_211_1_St-JuctionTo_Shape212_297_1_Ed_0" function="internal">
        <lane id=":JuctionFrom_Shape156_33_1_St-JuctionFrom_Shape157_211_1_St-JuctionTo_Shape212_297_1_Ed_0_0" index="0" allow="private emergency authority army vip passenger hov taxi bus coach delivery truck trailer motorcycle evehicle custom1 custom2" speed="18.06" length="20.81" shape="-2847.41,-10.90,-3.21 -2852.04,-10.47,-3.20 -2857.73,-9.67,-3.19 -2863.42,-8.80,-3.19 -2868.03,-8.15,-3.18"/>
    </edge>
    <edge id=":JuctionFrom_Shape156_33_1_St-JuctionFrom_Shape157_211_1_St-JuctionTo_Shape212_297_1_Ed_1" function="internal">
        <lane id=":JuctionFrom_Shape156_33_1_St-JuctionFrom_Shape157_211_1_St-JuctionTo_Shape212_297_1_Ed_1_0" index="0" allow="private emergency authority army vip passenger hov taxi bus coach delivery truck trailer motorcycle evehicle custom1 custom2" speed="18.06" length="20.83" shape="-2847.41,-10.90,-3.21 -2868.22,-11.55,-3.18"/>
    </edge>
    <edge id=":JuctionFrom_Shape160_13_1_St-JuctionTo_Shape155_154_1_Ed-JuctionFrom_Shape264_263_1_St_0" function="internal">
        <lane id=":JuctionFrom_Shape160_13_1_St-JuctionTo_Shape155_154_1_Ed-JuctionFrom_Shape264_263_1_St_0_0" index="0" allow="private emergency authority army vip passenger hov taxi bus coach delivery truck trailer motorcycle evehicle custom1 custom2" speed="18.06" length="21.21" shape="-3096.14,-96.43,-7.26 -3075.09,-93.84,-7.24"/>
    </edge>
    <edge id=":JuctionFrom_Shape160_13_1_St-JuctionTo_Shape155_154_1_Ed-JuctionFrom_Shape264_263_1_St_1" function="internal">
        <lane id=":JuctionFrom_Shape160_13_1_St-JuctionTo_Shape155_154_1_Ed-JuctionFrom_Shape264_263_1_St_1_0" index="0" allow="private emergency authority army vip passenger hov taxi bus coach delivery truck trailer motorcycle evehicle custom1 custom2" speed="18.06" length="21.18" shape="-3096.14,-96.43,-7.26 -3091.57,-95.30,-7.26 -3085.94,-93.62,-7.25 -3080.32,-91.87,-7.24 -3075.81,-90.49,-7.24"/>
    </edge>
    <edge id=":JuctionFrom_Shape162_139_1_St-JuctionFrom_Shape161_231_1_St-JuctionTo_Shape232_253_1_Ed_0" function="internal">
        <lane id=":JuctionFrom_Shape162_139_1_St-JuctionFrom_Shape161_231_1_St-JuctionTo_Shape232_253_1_Ed_0_0" index="0" allow="private emergency authority army vip passenger hov taxi bus coach delivery truck trailer motorcycle evehicle custom1 custom2" speed="18.06" length="23.98" shape="-2678.41,18.78,0.39 -2702.11,22.45,0.42"/>
    </edge>
    <edge id=":JuctionFrom_Shape162_139_1_St-JuctionFrom_Shape161_231_1_St-JuctionTo_Shape232_253_1_Ed_1" function="internal">
        <lane id=":JuctionFrom_Shape162_139_1_St-JuctionFrom_Shape161_231_1_St-JuctionTo_Shape232_253_1_Ed_1_0" index="0" allow="private emergency authority army vip passenger hov taxi bus coach delivery truck trailer motorcycle evehicle custom1 custom2" speed="18.06" length="24.02" shape="-2678.41,18.78,0.39 -2683.55,19.04,0.39 -2690.40,19.11,0.40 -2697.26,19.10,0.41 -2702.42,19.13,0.42"/>
    </edge>
    <edge id=":JuctionFrom_Shape164_162_1_St-JuctionTo_Shape166_164_1_Ed-JuctionFrom_Shape163_165_1_St_0" function="internal">
        <lane id=":JuctionFrom_Shape164_162_1_St-JuctionTo_Shape166_164_1_Ed-JuctionFrom_Shape163_165_1_St_0_0" index="0" allow="private emergency authority army vip passenger hov taxi bus coach delivery truck trailer motorcycle evehicle custom1 custom2" speed="5.59" length="7.63" shape="-2329.72,24.65,-6.88 -2331.27,25.07,-6.88 -2332.13,26.22,-6.88 -2332.30,28.12,-6.87 -2331.79,30.75,-6.87"/>
    </edge>
    <edge id=":JuctionFrom_Shape164_162_1_St-JuctionTo_Shape166_164_1_Ed-JuctionFrom_Shape163_165_1_St_1" function="internal">
        <lane id=":JuctionFrom_Shape164_162_1_St-JuctionTo_Shape166_164_1_Ed-JuctionFrom_Shape163_165_1_St_1_0" index="0" allow="private emergency authority army vip passenger hov taxi bus coach delivery truck trailer motorcycle evehicle custom1 custom2" speed="18.06" length="14.68" shape="-2329.72,24.65,-6.88 -2344.39,24.92,-6.95"/>
    </edge>
    <edge id=":JuctionFrom_Shape166_164_1_St-JuctionFrom_Shape165_172_1_St-JuctionTo_Shape173_173_1_Ed_0" function="internal">
        <lane id=":JuctionFrom_Shape166_164_1_St-JuctionFrom_Shape165_172_1_St-JuctionTo_Shape173_173_1_Ed_0_0" index="0" allow="private emergency authority army vip passenger hov taxi bus coach delivery truck trailer motorcycle evehicle custom1 custom2" speed="10.06" length="11.88" shape="-2287.44,23.96,-6.78 -2291.03,24.23,-6.79 -2294.01,25.00,-6.79 -2296.39,26.27,-6.80 -2298.16,28.04,-6.80"/>
    </edge>
    <edge id=":JuctionFrom_Shape166_164_1_St-JuctionFrom_Shape165_172_1_St-JuctionTo_Shape173_173_1_Ed_1" function="internal">
        <lane id=":JuctionFrom_Shape166_164_1_St-JuctionFrom_Shape165_172_1_St-JuctionTo_Shape173_173_1_Ed_1_0" index="0" allow="private emergency authority army vip passenger hov taxi bus coach delivery truck trailer motorcycle evehicle custom1 custom2" speed="18.06" length="11.50" shape="-2287.44,23.96,-6.78 -2298.93,24.03,-6.84"/>
    </edge>
    <edge id=":JuctionFrom_Shape174_174_1_St-JuctionFrom_Shape175_196_1_St-JuctionTo_Shape197_436_1_Ed_0" function="internal">
        <lane id=":JuctionFrom_Shape174_174_1_St-JuctionFrom_Shape175_196_1_St-JuctionTo_Shape197_436_1_Ed_0_0" index="0" allow="private emergency authority army vip passenger hov taxi bus coach delivery truck trailer motorcycle evehicle custom1 custom2" speed="18.06" length="13.69" shape="-1600.74,22.34,-2.28 -1604.24,22.61,-2.25 -1607.42,23.43,-2.23 -1610.50,24.66,-2.20 -1613.73,26.18,-2.17"/>
    </edge>
    <edge id=":JuctionFrom_Shape174_174_1_St-JuctionFrom_Shape175_196_1_St-JuctionTo_Shape197_436_1_Ed_1" function="internal">
        <lane id=":JuctionFrom_Shape174_174_1_St-JuctionFrom_Shape175_196_1_St-JuctionTo_Shape197_436_1_Ed_1_0" index="0" allow="private emergency authority army vip passenger hov taxi bus coach delivery truck trailer motorcycle evehicle custom1 custom2" speed="18.06" length="13.58" shape="-1600.74,22.34,-2.28 -1614.32,22.36,-2.16"/>
    </edge>
    <edge id=":JuctionFrom_Shape184_184_1_St-JuctionFrom_Shape185_186_1_St-JuctionTo_Shape187_439_1_Ed_0" function="internal">
        <lane id=":JuctionFrom_Shape184_184_1_St-JuctionFrom_Shape185_186_1_St-JuctionTo_Shape187_439_1_Ed_0_0" index="0" allow="private emergency authority army vip passenger hov taxi bus coach delivery truck trailer motorcycle evehicle custom1 custom2" speed="18.06" length="25.27" shape="-1415.46,-62.55,-2.41 -1415.82,-87.82,-2.48"/>
    </edge>
    <edge id=":JuctionFrom_Shape184_184_1_St-JuctionFrom_Shape185_186_1_St-JuctionTo_Shape187_439_1_Ed_1" function="internal">
        <lane id=":JuctionFrom_Shape184_184_1_St-JuctionFrom_Shape185_186_1_St-JuctionTo_Shape187_439_1_Ed_1_0" index="0" allow="private emergency authority army vip passenger hov taxi bus coach delivery truck trailer motorcycle evehicle custom1 custom2" speed="18.06" length="25.26" shape="-1415.46,-62.55,-2.41 -1415.07,-67.88,-2.43 -1414.17,-75.10,-2.45 -1413.16,-82.31,-2.48 -1412.45,-87.62,-2.49"/>
    </edge>
    <edge id=":JuctionFrom_Shape192_208_1_St-JuctionTo_Shape209_434_1_Ed_0" function="internal">
        <lane id=":JuctionFrom_Shape192_208_1_St-JuctionTo_Shape209_434_1_Ed_0_0" index="0" allow="private emergency authority army vip passenger hov taxi bus coach delivery truck trailer motorcycle evehicle custom1 custom2" speed="18.06" length="0.29" shape="-1400.63,21.49,-2.16 -1400.91,21.49,-2.16"/>
    </edge>
    <edge id=":JuctionFrom_Shape194_152_1_St-JuctionTo_Shape181_180_1_Ed_0" function="internal">
        <lane id=":JuctionFrom_Shape194_152_1_St-JuctionTo_Shape181_180_1_Ed_0_0" index="0" allow="private emergency authority army vip passenger hov taxi bus coach delivery truck trailer motorcycle evehicle custom1 custom2" speed="18.06" length="0.77" shape="-1440.33,-68.85,-2.43 -1440.10,-68.85,-2.43 -1439.95,-68.83,-2.43 -1439.80,-68.77,-2.43 -1439.59,-68.67,-2.43"/>
    </edge>
    <edge id=":JuctionFrom_Shape204_207_1_St-JuctionTo_Shape208_215_1_Ed_0" function="internal">
        <lane id=":JuctionFrom_Shape204_207_1_St-JuctionTo_Shape208_215_1_Ed_0_0" index="0" allow="private emergency authority army vip passenger hov taxi bus coach delivery truck trailer motorcycle evehicle custom1 custom2" speed="18.06" length="0.77" shape="-1377.79,10.57,-2.12 -1377.93,10.39,-2.12 -1378.01,10.25,-2.12 -1378.06,10.10,-2.12 -1378.10,9.88,-2.12"/>
    </edge>
    <edge id=":JuctionFrom_Shape205_435_1_St-JuctionTo_Shape438_443_1_Ed_0" function="internal">
        <lane id=":JuctionFrom_Shape205_435_1_St-JuctionTo_Shape438_443_1_Ed_0_0" index="0" allow="private emergency authority army vip passenger hov taxi bus coach delivery truck trailer motorcycle evehicle custom1 custom2" speed="18.06" length="0.30" shape="-1394.44,14.07,-2.15 -1394.44,14.37,-2.15"/>
    </edge>
    <edge id=":JuctionFrom_Shape206_205_1_St-JuctionTo_Shape203_442_1_Ed_0" function="internal">
        <lane id=":JuctionFrom_Shape206_205_1_St-JuctionTo_Shape203_442_1_Ed_0_0" index="0" allow="private emergency authority army vip passenger hov taxi bus coach delivery truck trailer motorcycle evehicle custom1 custom2" speed="18.06" length="0.30" shape="-1390.63,14.29,-2.12 -1390.63,14.59,-2.12"/>
    </edge>
    <edge id=":JuctionFrom_Shape210_210_1_St-JuctionFrom_Shape211_222_1_St-JuctionTo_Shape223_235_1_Ed_0" function="internal">
        <lane id=":JuctionFrom_Shape210_210_1_St-JuctionFrom_Shape211_222_1_St-JuctionTo_Shape223_235_1_Ed_0_0" index="0" allow="private emergency authority army vip passenger hov taxi bus coach delivery truck trailer motorcycle evehicle custom1 custom2" speed="18.06" length="25.97" shape="-1261.35,24.73,-0.47 -1266.79,25.10,-0.47 -1274.26,25.99,-0.48 -1281.72,26.97,-0.49 -1287.15,27.63,-0.49"/>
    </edge>
    <edge id=":JuctionFrom_Shape210_210_1_St-JuctionFrom_Shape211_222_1_St-JuctionTo_Shape223_235_1_Ed_1" function="internal">
        <lane id=":JuctionFrom_Shape210_210_1_St-JuctionFrom_Shape211_222_1_St-JuctionTo_Shape223_235_1_Ed_1_0" index="0" allow="private emergency authority army vip passenger hov taxi bus coach delivery truck trailer motorcycle evehicle custom1 custom2" speed="18.06" length="26.00" shape="-1261.35,24.73,-0.47 -1287.34,24.28,-0.49"/>
    </edge>
    <edge id=":JuctionFrom_Shape223_235_1_St-JuctionTo_Shape236_238_1_Ed-JuctionTo_Shape227_419_1_Ed_0" function="internal">
        <lane id=":JuctionFrom_Shape223_235_1_St-JuctionTo_Shape236_238_1_Ed-JuctionTo_Shape227_419_1_Ed_0_0" index="0" allow="private emergency authority army vip passenger hov taxi bus coach delivery truck trailer motorcycle evehicle custom1 custom2" speed="18.06" length="69.10" shape="-251.17,30.27,-6.48 -320.17,34.08,-6.46"/>
    </edge>
    <edge id=":JuctionFrom_Shape223_235_1_St-JuctionTo_Shape236_238_1_Ed-JuctionTo_Shape227_419_1_Ed_1" function="internal">
        <lane id=":JuctionFrom_Shape223_235_1_St-JuctionTo_Shape236_238_1_Ed-JuctionTo_Shape227_419_1_Ed_1_0" index="0" allow="private emergency authority army vip passenger hov taxi bus coach delivery truck trailer motorcycle evehicle custom1 custom2" speed="18.06" length="69.07" shape="-251.46,27.04,-6.48 -320.17,34.08,-6.46"/>
    </edge>
    <edge id=":JuctionFrom_Shape228_227_1_St-JuctionFrom_Shape261_260_1_St-JuctionTo_Shape221_447_1_Ed_0" function="internal">
        <lane id=":JuctionFrom_Shape228_227_1_St-JuctionFrom_Shape261_260_1_St-JuctionTo_Shape221_447_1_Ed_0_0" index="0" allow="private emergency authority army vip passenger hov taxi bus coach delivery truck trailer motorcycle evehicle custom1 custom2" speed="18.06" length="16.36" shape="-574.42,-77.63,-3.57 -558.09,-78.53,-3.76"/>
    </edge>
    <edge id=":JuctionFrom_Shape228_227_1_St-JuctionFrom_Shape261_260_1_St-JuctionTo_Shape221_447_1_Ed_1" function="internal">
        <lane id=":JuctionFrom_Shape228_227_1_St-JuctionFrom_Shape261_260_1_St-JuctionTo_Shape221_447_1_Ed_1_0" index="0" allow="private emergency authority army vip passenger hov taxi bus coach delivery truck trailer motorcycle evehicle custom1 custom2" speed="18.06" length="16.34" shape="-574.42,-77.63,-3.57 -570.49,-77.29,-3.62 -566.34,-76.58,-3.67 -562.19,-75.79,-3.71 -558.28,-75.18,-3.76"/>
    </edge>
    <edge id=":JuctionFrom_Shape230_233_1_St-JuctionTo_Shape234_237_1_Ed-JuctionFrom_Shape245_244_1_St_0" function="internal">
        <lane id=":JuctionFrom_Shape230_233_1_St-JuctionTo_Shape234_237_1_Ed-JuctionFrom_Shape245_244_1_St_0_0" index="0" allow="private emergency authority army vip passenger hov taxi bus coach delivery truck trailer motorcycle evehicle custom1 custom2" speed="18.06" length="11.67" shape="-114.51,-22.09,-6.86 -114.48,-33.75,-7.04"/>
    </edge>
    <edge id=":JuctionFrom_Shape230_233_1_St-JuctionTo_Shape234_237_1_Ed-JuctionFrom_Shape245_244_1_St_1" function="internal">
        <lane id=":JuctionFrom_Shape230_233_1_St-JuctionTo_Shape234_237_1_Ed-JuctionFrom_Shape245_244_1_St_1_0" index="0" allow="private emergency authority army vip passenger hov taxi bus coach delivery truck trailer motorcycle evehicle custom1 custom2" speed="18.06" length="11.80" shape="-114.51,-22.09,-6.86 -113.94,-25.22,-6.91 -112.70,-27.61,-6.96 -111.41,-30.00,-7.01 -110.67,-33.12,-7.06"/>
    </edge>
    <edge id=":JuctionFrom_Shape233_32_1_St-JuctionFrom_Shape232_253_1_St-JuctionTo_Shape254_261_1_Ed_0" function="internal">
        <lane id=":JuctionFrom_Shape233_32_1_St-JuctionFrom_Shape232_253_1_St-JuctionTo_Shape254_261_1_Ed_0_0" index="0" allow="private emergency authority army vip passenger hov taxi bus coach delivery truck trailer motorcycle evehicle custom1 custom2" speed="18.06" length="20.90" shape="-117.14,9.89,-13.65 -121.81,10.08,-13.65 -127.56,10.60,-13.65 -133.30,11.24,-13.64 -137.94,11.82,-13.64"/>
    </edge>
    <edge id=":JuctionFrom_Shape233_32_1_St-JuctionFrom_Shape232_253_1_St-JuctionTo_Shape254_261_1_Ed_1" function="internal">