<routes>
   <vType id="car" type="passenger" length="5" accel="3.5" decel="2.2" sigma="1.0"/>
   
   <flow id="carflow0" type="car" beg="0" end="0" number="5" from="E0" to="E32" color="0,1,0"/>
   <flow id="carflow1" type="car" beg="1" end="1" number="4" from="E1" to="E33" color="1,0,0"/>
   <flow id="carflow2" type="car" beg="2" end="2" number="3" from="E2" to="E34" color="0,0,1"/>
   <flow id="carflow3" type="car" beg="3" end="3" number="2" from="E3" to="E35" color="0,1,0"/>
   
   <flow id="carflow4" type="car" beg="0" end="0" number="5" from="E8" to="E40" color="0,1,0"/>
   <flow id="carflow5" type="car" beg="1" end="1" number="4" from="E10" to="E41" color="1,0,0"/>
   <flow id="carflow6" type="car" beg="2" end="2" number="3" from="E12" to="E42" color="0,0,1"/>
   <flow id="carflow7" type="car" beg="3" end="3" number="2" from="E14" to="E43" color="0,1,0"/>
   
</routes>