<?xml version="1.0" encoding="UTF-8"?>

<!-- generated on 2022-06-04 16:04:34 by Eclipse SUMO netedit Version 1.13.0
<configuration xmlns:xsi="http://www.w3.org/2001/XMLSchema-instance" xsi:noNamespaceSchemaLocation="http://sumo.dlr.de/xsd/netconvertConfiguration.xsd">

    <output>
        <output-file value="C:\Program%20Files%20(x86)\Eclipse\Sumo\DriveInCirlce\trafficLight.net.xml"/>
    </output>

    <processing>
        <offset.disable-normalization value="true"/>
    </processing>

    <junctions>
        <no-turnarounds value="true"/>
    </junctions>

    <report>
        <aggregate-warnings value="5"/>
    </report>

</configuration>
-->

<net version="1.9" junctionCornerDetail="5" limitTurnSpeed="5.50" xmlns:xsi="http://www.w3.org/2001/XMLSchema-instance" xsi:noNamespaceSchemaLocation="http://sumo.dlr.de/xsd/net_file.xsd">

    <location netOffset="0.00,0.00" convBoundary="-1.43,-210.89,609.11,275.71" origBoundary="10000000000.00,10000000000.00,-10000000000.00,-10000000000.00" projParameter="!"/>

    <edge id=":J1_0" function="internal">
        <lane id=":J1_0_0" index="0" speed="13.89" length="0.27" shape="303.02,98.39 303.10,98.39 303.15,98.39 303.21,98.38 303.29,98.37"/>
    </edge>
    <edge id=":J10_0" function="internal">
        <lane id=":J10_0_0" index="0" speed="13.89" length="0.98" shape="321.22,126.13 321.08,127.10"/>
    </edge>
    <edge id=":J12_0" function="internal">
        <lane id=":J12_0_0" index="0" speed="13.89" length="0.76" shape="324.62,126.72 324.61,127.48"/>
    </edge>
    <edge id=":J14_0" function="internal">
        <lane id=":J14_0_0" index="0" speed="13.89" length="0.21" shape="328.23,127.00 328.26,127.21"/>
    </edge>
    <edge id=":J16_0" function="internal">
        <lane id=":J16_0_0" index="0" speed="13.89" length="0.35" shape="332.02,127.54 332.02,127.44 332.02,127.37 332.00,127.30 331.98,127.19"/>
    </edge>
    <edge id=":J3_0" function="internal">
        <lane id=":J3_0_0" index="0" speed="13.89" length="0.26" shape="303.06,95.05 303.32,95.05"/>
    </edge>
    <edge id=":J35_0" function="internal">
        <lane id=":J35_0_0" index="0" speed="13.89" length="0.25" shape="351.59,98.36 351.67,98.37 351.72,98.38 351.77,98.38 351.84,98.38"/>
    </edge>
    <edge id=":J37_0" function="internal">
        <lane id=":J37_0_0" index="0" speed="13.89" length="0.27" shape="351.23,95.04 351.50,95.04"/>
    </edge>
    <edge id=":J39_0" function="internal">
        <lane id=":J39_0_0" index="0" speed="13.89" length="0.18" shape="351.31,91.71 351.36,91.70 351.39,91.70 351.43,91.70 351.48,91.70"/>
    </edge>
    <edge id=":J41_0" function="internal">
        <lane id=":J41_0_0" index="0" speed="13.89" length="0.39" shape="351.13,88.38 351.24,88.35 351.32,88.34 351.40,88.33 351.51,88.33"/>
    </edge>
    <edge id=":J43_0" function="internal">
        <lane id=":J43_0_0" index="0" speed="13.89" length="0.84" shape="321.25,66.35 321.37,67.18"/>
    </edge>
    <edge id=":J45_0" function="internal">
        <lane id=":J45_0_0" index="0" speed="13.89" length="0.86" shape="324.73,66.12 324.74,66.98"/>
    </edge>
    <edge id=":J47_0" function="internal">
        <lane id=":J47_0_0" index="0" speed="13.89" length="0.70" shape="328.30,65.92 328.22,66.62"/>
    </edge>
    <edge id=":J49_0" function="internal">
        <lane id=":J49_0_0" index="0" speed="13.89" length="0.10" shape="331.81,65.98 331.75,66.06"/>
    </edge>
    <edge id=":J5_0" function="internal">
        <lane id=":J5_0_0" index="0" speed="13.89" length="0.18" shape="303.18,91.71 303.23,91.71 303.27,91.71 303.31,91.71 303.36,91.72"/>
    </edge>
    <edge id=":J7_0" function="internal">
        <lane id=":J7_0_0" index="0" speed="13.89" length="0.40" shape="303.35,88.42 303.47,88.42 303.55,88.43 303.63,88.44 303.75,88.47"/>
    </edge>
    <edge id=":J8_0" function="internal">
        <lane id=":J8_0_0" index="0" speed="13.89" length="60.87" shape="328.24,127.01 321.28,66.55"/>
    </edge>
    <edge id=":J8_1" function="internal">
        <lane id=":J8_1_0" index="0" speed="13.89" length="60.80" shape="328.24,127.01 327.48,116.14 326.31,96.68 325.23,77.21 324.73,66.32"/>
    </edge>
    <edge id=":J8_2" function="internal">
        <lane id=":J8_2_0" index="0" speed="13.89" length="60.90" shape="328.24,127.01 327.95,116.10 327.87,96.57 327.98,77.03 328.28,66.12"/>
    </edge>
    <edge id=":J8_3" function="internal">
        <lane id=":J8_3_0" index="0" speed="13.89" length="60.96" shape="328.24,127.01 328.42,116.10 329.40,96.56 330.68,77.04 331.77,66.17"/>
    </edge>
    <edge id=":J8_4" function="internal">
        <lane id=":J8_4_0" index="0" speed="13.02" length="35.17" shape="328.24,127.01 327.21,112.82 327.42,102.44 328.88,95.89 331.59,93.17"/>
    </edge>
    <edge id=":J8_5" function="internal">
        <lane id=":J8_5_0" index="0" speed="12.28" length="34.65" shape="328.24,127.01 327.21,112.79 327.44,102.52 328.94,96.21 331.70,93.86"/>
    </edge>
    <edge id=":J8_6" function="internal">
        <lane id=":J8_6_0" index="0" speed="11.44" length="33.02" shape="328.24,127.01 328.02,118.20 328.62,107.44 329.93,98.35 331.81,94.55"/>
    </edge>
    <edge id=":J8_7" function="internal">
        <lane id=":J8_7_0" index="0" speed="10.86" length="32.40" shape="328.24,127.01 328.02,118.25 328.63,107.63 329.97,98.76 331.92,95.24"/>
    </edge>
    <edge id=":J8_8" function="internal">
        <lane id=":J8_8_0" index="0" speed="13.89" length="61.18" shape="331.89,126.80 329.86,116.02 326.41,96.70 323.05,77.37 321.28,66.55"/>
    </edge>
    <edge id=":J8_9" function="internal">
        <lane id=":J8_9_0" index="0" speed="13.89" length="60.91" shape="331.89,126.80 330.32,115.99 327.92,96.61 325.72,77.19 324.73,66.32"/>
    </edge>
    <edge id=":J8_10" function="internal">
        <lane id=":J8_10_0" index="0" speed="13.89" length="60.81" shape="331.89,126.80 330.79,115.96 329.48,96.49 328.47,77.01 328.28,66.12"/>
    </edge>
    <edge id=":J8_11" function="internal">
        <lane id=":J8_11_0" index="0" speed="13.89" length="60.66" shape="331.89,126.80 331.26,115.95 331.01,96.49 331.17,77.02 331.77,66.17"/>
    </edge>
    <edge id=":J8_12" function="internal">
        <lane id=":J8_12_0" index="0" speed="12.40" length="34.98" shape="331.89,126.80 329.20,112.71 328.25,102.41 329.05,95.89 331.59,93.17"/>
    </edge>
    <edge id=":J8_13" function="internal">
        <lane id=":J8_13_0" index="0" speed="11.55" length="33.30" shape="331.89,126.80 330.65,118.04 330.01,107.19 330.26,97.92 331.70,93.86"/>
    </edge>
    <edge id=":J8_14" function="internal">
        <lane id=":J8_14_0" index="0" speed="10.95" length="32.65" shape="331.89,126.80 330.65,118.09 330.02,107.39 330.30,98.34 331.81,94.55"/>
    </edge>
    <edge id=":J8_15" function="internal">
        <lane id=":J8_15_0" index="0" speed="10.43" length="32.02" shape="331.89,126.80 330.64,118.14 330.02,107.58 330.34,98.74 331.92,95.24"/>
    </edge>
    <edge id=":J8_16" function="internal">
        <lane id=":J8_16_0" index="0" speed="9.70" length="27.50" shape="319.08,92.42 321.35,91.35 322.48,86.68 322.45,78.42 321.28,66.55"/>
    </edge>
    <edge id=":J8_17" function="internal">
        <lane id=":J8_17_0" index="0" speed="10.16" length="28.23" shape="319.08,92.42 321.67,91.36 323.47,86.66 324.49,78.31 324.73,66.32"/>
    </edge>
    <edge id=":J8_18" function="internal">
        <lane id=":J8_18_0" index="0" speed="10.74" length="29.33" shape="319.08,92.42 321.97,91.37 324.47,86.64 326.58,78.22 328.28,66.12"/>
    </edge>
    <edge id=":J8_19" function="internal">
        <lane id=":J8_19_0" index="0" speed="11.39" length="30.52" shape="319.08,92.42 322.27,91.39 325.44,86.68 328.61,78.27 331.77,66.17"/>
    </edge>
    <edge id=":J8_20" function="internal">
        <lane id=":J8_20_0" index="0" speed="13.89" length="12.69" shape="319.08,92.42 322.39,93.23 325.33,93.70 328.27,93.73 331.59,93.17"/>
    </edge>
    <edge id=":J8_21" function="internal">
        <lane id=":J8_21_0" index="0" speed="13.89" length="12.79" shape="319.08,92.42 322.39,93.24 325.34,93.81 328.31,94.04 331.70,93.86"/>
    </edge>
    <edge id=":J8_22" function="internal">
        <lane id=":J8_22_0" index="0" speed="13.89" length="12.94" shape="319.08,92.42 322.41,93.26 325.39,93.90 328.39,94.34 331.81,94.55"/>
    </edge>
    <edge id=":J8_23" function="internal">
        <lane id=":J8_23_0" index="0" speed="13.89" length="13.15" shape="319.08,92.42 322.43,93.27 325.46,94.00 328.51,94.64 331.92,95.24"/>
    </edge>
    <edge id=":J8_24" function="internal">
        <lane id=":J8_24_0" index="0" speed="10.25" length="28.41" shape="319.16,93.54 321.41,92.10 322.52,87.12 322.47,78.60 321.28,66.55"/>
    </edge>
    <edge id=":J8_25" function="internal">
        <lane id=":J8_25_0" index="0" speed="10.76" length="29.08" shape="319.16,93.54 321.71,92.10 323.49,87.08 324.50,78.49 324.73,66.32"/>
    </edge>
    <edge id=":J8_26" function="internal">
        <lane id=":J8_26_0" index="0" speed="11.41" length="30.11" shape="319.16,93.54 322.01,92.09 324.48,87.04 326.57,78.38 328.28,66.12"/>
    </edge>
    <edge id=":J8_27" function="internal">
        <lane id=":J8_27_0" index="0" speed="12.14" length="31.24" shape="319.16,93.54 322.29,92.10 325.44,87.06 328.60,78.42 331.77,66.17"/>
    </edge>
    <edge id=":J8_28" function="internal">
        <lane id=":J8_28_0" index="0" speed="13.89" length="12.52" shape="319.16,93.54 322.51,93.89 325.41,94.02 328.30,93.81 331.59,93.17"/>
    </edge>
    <edge id=":J8_29" function="internal">
        <lane id=":J8_29_0" index="0" speed="13.89" length="12.58" shape="319.16,93.54 322.51,93.91 325.43,94.12 328.34,94.12 331.70,93.86"/>
    </edge>
    <edge id=":J8_30" function="internal">
        <lane id=":J8_30_0" index="0" speed="13.89" length="12.70" shape="319.16,93.54 322.53,93.92 325.47,94.21 328.42,94.42 331.81,94.55"/>
    </edge>
    <edge id=":J8_31" function="internal">
        <lane id=":J8_31_0" index="0" speed="13.89" length="12.87" shape="319.16,93.54 331.92,95.24"/>
    </edge>
    <edge id=":J8_32" function="internal">
        <lane id=":J8_32_0" index="0" speed="10.90" length="29.31" shape="319.23,94.62 321.47,92.81 322.55,87.53 322.49,78.77 321.28,66.55"/>
    </edge>
    <edge id=":J8_33" function="internal">
        <lane id=":J8_33_0" index="0" speed="11.47" length="29.92" shape="319.23,94.62 321.76,92.79 323.51,87.47 324.50,78.64 324.73,66.32"/>
    </edge>
    <edge id=":J8_34" function="internal">
        <lane id=":J8_34_0" index="0" speed="12.21" length="30.90" shape="319.23,94.62 322.04,92.78 324.49,87.41 326.57,78.53 328.28,66.12"/>
    </edge>
    <edge id=":J8_35" function="internal">
        <lane id=":J8_35_0" index="0" speed="13.05" length="31.98" shape="319.23,94.62 322.32,92.78 325.44,87.43 328.59,78.56 331.77,66.17"/>
    </edge>
    <edge id=":J8_36" function="internal">
        <lane id=":J8_36_0" index="0" speed="13.89" length="12.47" shape="319.23,94.62 322.59,94.50 325.46,94.29 328.31,93.88 331.59,93.17"/>
    </edge>
    <edge id=":J8_37" function="internal">
        <lane id=":J8_37_0" index="0" speed="13.89" length="12.49" shape="319.23,94.62 331.70,93.86"/>
    </edge>
    <edge id=":J8_38" function="internal">
        <lane id=":J8_38_0" index="0" speed="13.89" length="12.58" shape="319.23,94.62 331.81,94.55"/>
    </edge>
    <edge id=":J8_39" function="internal">
        <lane id=":J8_39_0" index="0" speed="13.89" length="12.72" shape="319.23,94.62 322.63,94.55 325.60,94.58 328.56,94.79 331.92,95.24"/>
    </edge>
    <edge id=":J8_40" function="internal">
        <lane id=":J8_40_0" index="0" speed="11.63" length="30.19" shape="319.31,95.65 321.52,93.47 322.58,87.90 322.50,78.92 321.28,66.55"/>
    </edge>
    <edge id=":J8_41" function="internal">
        <lane id=":J8_41_0" index="0" speed="12.30" length="30.76" shape="319.31,95.65 321.80,93.45 323.53,87.83 324.51,78.79 324.73,66.32"/>
    </edge>
    <edge id=":J8_42" function="internal">
        <lane id=":J8_42_0" index="0" speed="13.16" length="31.70" shape="319.31,95.65 322.08,93.43 324.50,87.76 326.57,78.66 328.28,66.12"/>
    </edge>
    <edge id=":J8_43" function="internal">
        <lane id=":J8_43_0" index="0" speed="13.89" length="32.73" shape="319.31,95.65 322.35,93.42 325.44,87.77 328.58,78.68 331.77,66.17"/>
    </edge>
    <edge id=":J8_44" function="internal">
        <lane id=":J8_44_0" index="0" speed="13.89" length="12.53" shape="319.31,95.65 331.59,93.17"/>
    </edge>
    <edge id=":J8_45" function="internal">
        <lane id=":J8_45_0" index="0" speed="13.89" length="12.52" shape="319.31,95.65 331.70,93.86"/>
    </edge>
    <edge id=":J8_46" function="internal">
        <lane id=":J8_46_0" index="0" speed="13.89" length="12.58" shape="319.31,95.65 322.64,95.10 325.53,94.74 328.44,94.55 331.81,94.55"/>
    </edge>
    <edge id=":J8_47" function="internal">
        <lane id=":J8_47_0" index="0" speed="13.89" length="12.69" shape="319.31,95.65 322.66,95.12 325.61,94.83 328.56,94.85 331.92,95.24"/>
    </edge>
    <edge id=":J8_48" function="internal">
        <lane id=":J8_48_0" index="0" speed="13.89" length="60.37" shape="321.11,126.90 321.49,116.08 321.67,96.72 321.61,77.37 321.28,66.55"/>
    </edge>
    <edge id=":J8_49" function="internal">
        <lane id=":J8_49_0" index="0" speed="13.89" length="60.69" shape="321.11,126.90 321.95,116.05 323.18,96.63 324.28,77.20 324.73,66.32"/>
    </edge>
    <edge id=":J8_50" function="internal">
        <lane id=":J8_50_0" index="0" speed="13.89" length="61.20" shape="321.11,126.90 328.28,66.12"/>
    </edge>
    <edge id=":J8_51" function="internal">
        <lane id=":J8_51_0" index="0" speed="13.89" length="61.66" shape="321.11,126.90 322.89,116.01 326.26,96.51 329.72,77.02 331.77,66.17"/>
    </edge>
    <edge id=":J8_52" function="internal">
        <lane id=":J8_52_0" index="0" speed="13.89" length="36.13" shape="321.11,126.90 323.30,112.73 325.78,102.38 328.54,95.86 331.59,93.17"/>
    </edge>
    <edge id=":J8_53" function="internal">
        <lane id=":J8_53_0" index="0" speed="13.68" length="35.64" shape="321.11,126.90 323.32,112.71 325.82,102.47 328.61,96.19 331.70,93.86"/>
    </edge>
    <edge id=":J8_54" function="internal">
        <lane id=":J8_54_0" index="0" speed="12.83" length="35.19" shape="321.11,126.90 323.33,112.69 325.86,102.55 328.68,96.51 331.81,94.55"/>
    </edge>
    <edge id=":J8_55" function="internal">
        <lane id=":J8_55_0" index="0" speed="11.96" length="33.76" shape="321.11,126.90 322.90,118.17 325.94,107.60 329.27,98.77 331.92,95.24"/>
    </edge>
    <edge id=":J8_56" function="internal">
        <lane id=":J8_56_0" index="0" speed="13.89" length="60.83" shape="324.61,127.28 324.21,116.38 323.21,96.90 322.07,77.43 321.28,66.55"/>
    </edge>
    <edge id=":J8_57" function="internal">
        <lane id=":J8_57_0" index="0" speed="13.89" length="60.96" shape="324.61,127.28 324.73,66.32"/>
    </edge>
    <edge id=":J8_58" function="internal">
        <lane id=":J8_58_0" index="0" speed="13.89" length="61.27" shape="324.61,127.28 325.14,116.32 326.27,96.69 327.49,77.07 328.28,66.12"/>
    </edge>
    <edge id=":J8_59" function="internal">
        <lane id=":J8_59_0" index="0" speed="13.89" length="61.53" shape="324.61,127.28 325.60,116.31 327.80,96.68 330.19,77.08 331.77,66.17"/>
    </edge>
    <edge id=":J8_60" function="internal">
        <lane id=":J8_60_0" index="0" speed="13.82" length="35.79" shape="324.61,127.28 325.22,112.95 326.59,102.49 328.71,95.90 331.59,93.17"/>
    </edge>
    <edge id=":J8_61" function="internal">
        <lane id=":J8_61_0" index="0" speed="12.97" length="35.28" shape="324.61,127.28 325.23,112.93 326.62,102.58 328.77,96.22 331.70,93.86"/>
    </edge>
    <edge id=":J8_62" function="internal">
        <lane id=":J8_62_0" index="0" speed="12.06" length="33.82" shape="324.61,127.28 325.41,118.41 327.25,107.56 329.57,98.39 331.81,94.55"/>
    </edge>
    <edge id=":J8_63" function="internal">
        <lane id=":J8_63_0" index="0" speed="11.41" length="33.22" shape="324.61,127.28 325.42,118.46 327.27,107.76 329.63,98.81 331.92,95.24"/>
    </edge>

    <edge id="E0" from="J0" to="J1" priority="-1">
        <lane id="E0_0" index="0" speed="13.89" length="304.17" shape="-1.15,98.36 303.02,98.39"/>
    </edge>
    <edge id="E1" from="J2" to="J3" priority="-1">
        <lane id="E1_0" index="0" speed="13.89" length="304.14" shape="-1.08,95.01 303.06,95.05"/>
    </edge>
    <edge id="E10" from="J11" to="J12" priority="-1">
        <lane id="E10_0" index="0" speed="13.89" length="148.71" shape="324.70,275.43 324.62,126.72"/>
    </edge>
    <edge id="E11" from="J12" to="J8" priority="-1">
        <lane id="E11_0" index="0" speed="13.89" length="0.20" shape="324.61,127.48 324.61,127.28"/>
    </edge>
    <edge id="E12" from="J13" to="J14" priority="-1">
        <lane id="E12_0" index="0" speed="13.89" length="148.71" shape="328.36,275.71 328.23,127.00"/>
    </edge>
    <edge id="E13" from="J14" to="J8" priority="-1">
        <lane id="E13_0" index="0" speed="13.89" length="0.20" shape="328.26,127.21 328.24,127.01"/>
    </edge>
    <edge id="E14" from="J15" to="J16" priority="-1">
        <lane id="E14_0" index="0" speed="13.89" length="147.62" shape="332.02,275.16 332.02,127.54"/>
    </edge>
    <edge id="E15" from="J16" to="J8" priority="-1">
        <lane id="E15_0" index="0" speed="13.89" length="0.40" shape="331.98,127.19 331.89,126.80"/>
    </edge>
    <edge id="E2" from="J4" to="J5" priority="-1">
        <lane id="E2_0" index="0" speed="13.89" length="304.31" shape="-1.13,91.78 303.18,91.71"/>
    </edge>
    <edge id="E3" from="J6" to="J7" priority="-1">
        <lane id="E3_0" index="0" speed="13.89" length="304.78" shape="-1.43,88.48 303.35,88.42"/>
    </edge>
    <edge id="E32" from="J35" to="J36" priority="-1">
        <lane id="E32_0" index="0" speed="13.89" length="256.98" shape="351.84,98.38 608.82,98.57"/>
    </edge>
    <edge id="E33" from="J37" to="J38" priority="-1">
        <lane id="E33_0" index="0" speed="13.89" length="257.59" shape="351.50,95.04 609.08,95.13"/>
    </edge>
    <edge id="E34" from="J39" to="J40" priority="-1">
        <lane id="E34_0" index="0" speed="13.89" length="257.63" shape="351.48,91.70 609.11,91.75"/>
    </edge>
    <edge id="E35" from="J41" to="J42" priority="-1">
        <lane id="E35_0" index="0" speed="13.89" length="257.54" shape="351.51,88.33 609.05,88.34"/>
    </edge>
    <edge id="E36" from="J8" to="J35" priority="-1">
        <lane id="E36_0" index="0" speed="13.89" length="19.92" shape="331.92,95.24 351.59,98.36"/>
    </edge>
    <edge id="E37" from="J8" to="J37" priority="-1">
        <lane id="E37_0" index="0" speed="13.89" length="19.42" shape="331.81,94.55 351.23,95.04"/>
    </edge>
    <edge id="E38" from="J8" to="J39" priority="-1">
        <lane id="E38_0" index="0" speed="13.89" length="19.72" shape="331.70,93.86 351.31,91.71"/>
    </edge>
    <edge id="E39" from="J8" to="J41" priority="-1">
        <lane id="E39_0" index="0" speed="13.89" length="20.12" shape="331.59,93.17 351.13,88.38"/>
    </edge>
    <edge id="E4" from="J1" to="J8" priority="-1">
        <lane id="E4_0" index="0" speed="13.89" length="16.25" shape="303.29,98.37 319.31,95.65"/>
    </edge>
    <edge id="E40" from="J43" to="J44" priority="-1">
        <lane id="E40_0" index="0" speed="13.89" length="278.07" shape="321.37,67.18 321.21,-210.89"/>
    </edge>
    <edge id="E41" from="J45" to="J46" priority="-1">
        <lane id="E41_0" index="0" speed="13.89" length="277.54" shape="324.74,66.98 324.95,-210.56"/>
    </edge>
    <edge id="E42" from="J47" to="J48" priority="-1">
        <lane id="E42_0" index="0" speed="13.89" length="276.61" shape="328.22,66.62 328.43,-209.99"/>
    </edge>
    <edge id="E43" from="J49" to="J50" priority="-1">
        <lane id="E43_0" index="0" speed="13.89" length="276.13" shape="331.75,66.06 331.92,-210.07"/>
    </edge>
    <edge id="E44" from="J8" to="J43" priority="-1">
        <lane id="E44_0" index="0" speed="13.89" length="0.20" shape="321.28,66.55 321.25,66.35"/>
    </edge>
    <edge id="E45" from="J8" to="J45" priority="-1">
        <lane id="E45_0" index="0" speed="13.89" length="0.20" shape="324.73,66.32 324.73,66.12"/>
    </edge>
    <edge id="E46" from="J8" to="J47" priority="-1">
        <lane id="E46_0" index="0" speed="13.89" length="0.20" shape="328.28,66.12 328.30,65.92"/>
    </edge>
    <edge id="E47" from="J8" to="J49" priority="-1">
        <lane id="E47_0" index="0" speed="13.89" length="0.20" shape="331.77,66.17 331.81,65.98"/>
    </edge>
    <edge id="E5" from="J3" to="J8" priority="-1">
        <lane id="E5_0" index="0" speed="13.89" length="15.92" shape="303.32,95.05 319.23,94.62"/>
    </edge>
    <edge id="E6" from="J5" to="J8" priority="-1">
        <lane id="E6_0" index="0" speed="13.89" length="15.90" shape="303.36,91.72 319.16,93.54"/>
    </edge>
    <edge id="E7" from="J7" to="J8" priority="-1">
        <lane id="E7_0" index="0" speed="13.89" length="15.83" shape="303.75,88.47 319.08,92.42"/>
    </edge>
    <edge id="E8" from="J9" to="J10" priority="-1">
        <lane id="E8_0" index="0" speed="13.89" length="148.75" shape="321.22,274.88 321.22,126.13"/>
    </edge>
    <edge id="E9" from="J10" to="J8" priority="-1">
        <lane id="E9_0" index="0" speed="13.89" length="0.20" shape="321.08,127.10 321.11,126.90"/>
    </edge>

    <tlLogic id="J8" type="static" programID="0" offset="0">
        <phase duration="31" state="rrrrrrrrrrrrrrrrGGGGGGGGrrrrrrrrrrrrrrrrrrrrrrrrrrrrrrrrrrrrrrrr"/>
        <phase duration="3"  state="rrrrrrrrrrrrrrrryyyyyyyyrrrrrrrrrrrrrrrrrrrrrrrrrrrrrrrrrrrrrrrr"/>
        <phase duration="31" state="GGGGGGGGrrrrrrrrrrrrrrrrrrrrrrrrrrrrrrrrrrrrrrrrrrrrrrrrrrrrrrrr"/>
        <phase duration="3"  state="yyyyyyyyrrrrrrrrrrrrrrrrrrrrrrrrrrrrrrrrrrrrrrrrrrrrrrrrrrrrrrrr"/>
        <phase duration="31" state="rrrrrrrrrrrrrrrrrrrrrrrrrrrrrrrrGGGGGGGGrrrrrrrrrrrrrrrrrrrrrrrr"/>
        <phase duration="3"  state="rrrrrrrrrrrrrrrrrrrrrrrrrrrrrrrryyyyyyyyrrrrrrrrrrrrrrrrrrrrrrrr"/>
        <phase duration="31" state="rrrrrrrrrrrrrrrrrrrrrrrrrrrrrrrrrrrrrrrrrrrrrrrrGGGGGGGGrrrrrrrr"/>
        <phase duration="3"  state="rrrrrrrrrrrrrrrrrrrrrrrrrrrrrrrrrrrrrrrrrrrrrrrryyyyyyyyrrrrrrrr"/>
        <phase duration="31" state="rrrrrrrrrrrrrrrrrrrrrrrrGGGGGGGGrrrrrrrrrrrrrrrrrrrrrrrrrrrrrrrr"/>
        <phase duration="3"  state="rrrrrrrrrrrrrrrrrrrrrrrryyyyyyyyrrrrrrrrrrrrrrrrrrrrrrrrrrrrrrrr"/>
        <phase duration="31" state="rrrrrrrrrrrrrrrrrrrrrrrrrrrrrrrrrrrrrrrrGGGGGGGGrrrrrrrrrrrrrrrr"/>
        <phase duration="3"  state="rrrrrrrrrrrrrrrrrrrrrrrrrrrrrrrrrrrrrrrryyyyyyyyrrrrrrrrrrrrrrrr"/>
        <phase duration="31" state="rrrrrrrrGGGGGGGGrrrrrrrrrrrrrrrrrrrrrrrrrrrrrrrrrrrrrrrrrrrrrrrr"/>
        <phase duration="3"  state="rrrrrrrryyyyyyyyrrrrrrrrrrrrrrrrrrrrrrrrrrrrrrrrrrrrrrrrrrrrrrrr"/>
        <phase duration="31" state="rrrrrrrrrrrrrrrrrrrrrrrrrrrrrrrrrrrrrrrrrrrrrrrrrrrrrrrrGGGGGGGG"/>
        <phase duration="3"  state="rrrrrrrrrrrrrrrrrrrrrrrrrrrrrrrrrrrrrrrrrrrrrrrrrrrrrrrryyyyyyyy"/>
    </tlLogic>

    <junction id="J0" type="dead_end" x="-1.15" y="99.96" incLanes="" intLanes="" shape="-1.15,99.96 -1.15,96.76"/>
    <junction id="J1" type="priority" x="303.29" y="99.99" incLanes="E0_0" intLanes=":J1_0_0" shape="303.56,99.94 303.02,96.79 303.02,99.99 303.22,99.99 303.29,99.98 303.36,99.98">
        <request index="0" response="0" foes="0" cont="0"/>
    </junction>
    <junction id="J10" type="priority" x="322.82" y="126.13" incLanes="E8_0" intLanes=":J10_0_0" shape="319.62,126.13 322.82,126.13 319.65,125.73 319.63,125.87 319.62,125.93 319.62,126.04">
        <request index="0" response="0" foes="0" cont="0"/>
    </junction>
    <junction id="J11" type="dead_end" x="326.30" y="275.43" incLanes="" intLanes="" shape="326.30,275.43 323.10,275.43"/>
    <junction id="J12" type="priority" x="326.22" y="126.59" incLanes="E10_0" intLanes=":J12_0_0" shape="323.02,126.72 326.22,126.72 326.22,126.46 323.02,126.41">
        <request index="0" response="0" foes="0" cont="0"/>
    </junction>
    <junction id="J13" type="dead_end" x="329.96" y="275.71" incLanes="" intLanes="" shape="329.96,275.71 326.76,275.71"/>
    <junction id="J14" type="priority" x="329.83" y="126.84" incLanes="E12_0" intLanes=":J14_0_0" shape="326.63,127.01 329.83,127.00 329.83,126.84 329.82,126.75">
        <request index="0" response="0" foes="0" cont="0"/>
    </junction>
    <junction id="J15" type="dead_end" x="333.62" y="275.16" incLanes="" intLanes="" shape="333.62,275.16 330.42,275.16"/>
    <junction id="J16" type="priority" x="333.62" y="127.19" incLanes="E14_0" intLanes=":J16_0_0" shape="330.42,127.54 333.62,127.54 333.62,127.28 333.61,127.19 333.60,127.10 333.58,126.99 333.54,126.85">
        <request index="0" response="0" foes="0" cont="0"/>
    </junction>
    <junction id="J2" type="dead_end" x="-1.08" y="96.61" incLanes="" intLanes="" shape="-1.08,96.61 -1.08,93.41"/>
    <junction id="J3" type="priority" x="303.21" y="96.65" incLanes="E1_0" intLanes=":J3_0_0" shape="303.36,96.65 303.28,93.45 303.06,93.45 303.06,96.65">
        <request index="0" response="0" foes="0" cont="0"/>
    </junction>
    <junction id="J35" type="priority" x="351.59" y="99.98" incLanes="E36_0" intLanes=":J35_0_0" shape="351.84,99.98 351.84,96.78 351.34,99.94 351.53,99.97 351.59,99.98 351.66,99.98">
        <request index="0" response="0" foes="0" cont="0"/>
    </junction>
    <junction id="J36" type="dead_end" x="608.82" y="100.17" incLanes="E32_0" intLanes="" shape="608.82,96.97 608.82,100.17"/>
    <junction id="J37" type="priority" x="351.34" y="96.64" incLanes="E37_0" intLanes=":J37_0_0" shape="351.49,96.64 351.50,93.44 351.27,93.44 351.19,96.64">
        <request index="0" response="0" foes="0" cont="0"/>
    </junction>
    <junction id="J38" type="dead_end" x="609.08" y="96.73" incLanes="E33_0" intLanes="" shape="609.08,93.53 609.08,96.73"/>
    <junction id="J39" type="priority" x="351.48" y="93.30" incLanes="E38_0" intLanes=":J39_0_0" shape="351.48,93.30 351.48,90.10 351.35,90.10 351.26,90.11 351.21,90.11">
        <request index="0" response="0" foes="0" cont="0"/>
    </junction>
    <junction id="J4" type="dead_end" x="-1.13" y="93.38" incLanes="" intLanes="" shape="-1.13,93.38 -1.13,90.18"/>
    <junction id="J40" type="dead_end" x="609.11" y="93.35" incLanes="E34_0" intLanes="" shape="609.11,90.15 609.11,93.35"/>
    <junction id="J41" type="priority" x="351.51" y="89.93" incLanes="E39_0" intLanes=":J41_0_0" shape="351.51,89.93 351.51,86.73 351.22,86.73 351.13,86.74 351.03,86.76 350.91,86.78 350.75,86.82">
        <request index="0" response="0" foes="0" cont="0"/>
    </junction>
    <junction id="J42" type="dead_end" x="609.05" y="89.94" incLanes="E35_0" intLanes="" shape="609.05,86.74 609.05,89.94"/>
    <junction id="J43" type="priority" x="322.97" y="67.18" incLanes="E44_0" intLanes=":J43_0_0" shape="319.80,67.59 322.97,67.18 319.77,67.18 319.77,67.33 319.77,67.38 319.79,67.50">
        <request index="0" response="0" foes="0" cont="0"/>
    </junction>
    <junction id="J44" type="dead_end" x="322.81" y="-210.89" incLanes="E40_0" intLanes="" shape="319.61,-210.89 322.81,-210.89"/>
    <junction id="J45" type="priority" x="326.34" y="67.12" incLanes="E45_0" intLanes=":J45_0_0" shape="323.14,67.29 326.34,67.26 326.34,66.98 323.14,66.98">
        <request index="0" response="0" foes="0" cont="0"/>
    </junction>
    <junction id="J46" type="dead_end" x="326.55" y="-210.56" incLanes="E41_0" intLanes="" shape="323.35,-210.56 326.55,-210.56"/>
    <junction id="J47" type="priority" x="329.82" y="66.79" incLanes="E46_0" intLanes=":J47_0_0" shape="329.82,66.62 326.62,66.62 329.80,66.96 329.81,66.83 329.82,66.75">
        <request index="0" response="0" foes="0" cont="0"/>
    </junction>
    <junction id="J48" type="dead_end" x="330.03" y="-209.99" incLanes="E42_0" intLanes="" shape="326.83,-209.99 330.03,-209.99"/>
    <junction id="J49" type="priority" x="333.35" y="66.42" incLanes="E47_0" intLanes=":J49_0_0" shape="333.35,66.06 330.15,66.06 333.27,66.77 333.33,66.51 333.34,66.42 333.35,66.33 333.35,66.21">
        <request index="0" response="0" foes="0" cont="0"/>
    </junction>
    <junction id="J5" type="priority" x="303.18" y="93.31" incLanes="E2_0" intLanes=":J5_0_0" shape="303.18,93.31 303.55,90.13 303.41,90.12 303.32,90.11 303.26,90.11">
        <request index="0" response="0" foes="0" cont="0"/>
    </junction>
    <junction id="J50" type="dead_end" x="333.52" y="-210.07" incLanes="E43_0" intLanes="" shape="330.32,-210.07 333.52,-210.07"/>
    <junction id="J6" type="dead_end" x="-1.43" y="90.08" incLanes="" intLanes="" shape="-1.43,90.08 -1.43,86.88"/>
    <junction id="J7" type="priority" x="303.35" y="90.02" incLanes="E3_0" intLanes=":J7_0_0" shape="303.35,90.02 304.15,86.92 303.86,86.85 303.75,86.83 303.65,86.82 303.52,86.82 303.35,86.82">
        <request index="0" response="0" foes="0" cont="0"/>
    </junction>