<?xml version="1.0" encoding="UTF-8"?>

<!-- generated on 2022-06-15 10:10:13 by Eclipse SUMO netedit Version 1.13.0
<configuration xmlns:xsi="http://www.w3.org/2001/XMLSchema-instance" xsi:noNamespaceSchemaLocation="http://sumo.dlr.de/xsd/netconvertConfiguration.xsd">

    <output>
        <output-file value="D:\@Tll_Training\SUMO_Projects\TwoSplinesJunctionJump\manual2edges.net.xml"/>
    </output>

    <processing>
        <offset.disable-normalization value="true"/>
    </processing>

    <junctions>
        <no-turnarounds value="true"/>
    </junctions>

    <netedit>
        <route-files value="D:\@Tll_Training\SUMO_Projects\TwoSplinesJunctionJump\manual2edges.rou.xml"/>
    </netedit>

    <report>
        <aggregate-warnings value="5"/>
    </report>

</configuration>
-->

<net version="1.9" junctionCornerDetail="5" limitTurnSpeed="5.50" xmlns:xsi="http://www.w3.org/2001/XMLSchema-instance" xsi:noNamespaceSchemaLocation="http://sumo.dlr.de/xsd/net_file.xsd">

    <location netOffset="0.00,0.00" convBoundary="0.00,0.00,30.00,30.00" origBoundary="10000000000.00,10000000000.00,-10000000000.00,-10000000000.00" projParameter="!"/>

    <edge id=":cluster_JuctionFrom_Shape001_1_1_St_JuctionTo_Line004_2_1_Ed_0" function="internal">
        <lane id=":cluster_JuctionFrom_Shape001_1_1_St_JuctionTo_Line004_2_1_Ed_0_0" index="0" speed="9.14" length="18.83" shape="-1.60,10.15 -0.88,5.01 1.30,1.34 4.92,-0.87 10.00,-1.60"/>
    </edge>

    <edge id="edgeId_Line004_2_1_St" from="JuctionFrom_Line004_2_1_St" to="cluster_JuctionFrom_Shape001_1_1_St_JuctionTo_Line004_2_1_Ed" priority="-1" shape="0.00,30.00 0.00,10.15">
        <lane id="edgeId_Line004_2_1_St_0" index="0" speed="13.89" length="19.85" shape="-1.60,30.00 -1.60,10.15"/>
    </edge>
    <edge id="edgeId_Shape001_1_1_St" from="cluster_JuctionFrom_Shape001_1_1_St_JuctionTo_Line004_2_1_Ed" to="JuctionTo_Shape001_1_1_Ed" priority="-1" shape="10.00,0.00 30.00,0.00">
        <lane id="edgeId_Shape001_1_1_St_0" index="0" speed="13.89" length="20.00" shape="10.00,-1.60 30.00,-1.60"/>
    </edge>

    <tlLogic id="cluster_JuctionFrom_Shape001_1_1_St_JuctionTo_Line004_2_1_Ed" type="static" programID="0" offset="0">
        <phase duration="82" state="G"/>
        <phase duration="3"  state="y"/>
        <phase duration="5"  state="r"/>
    </tlLogic>

    <junction id="JuctionFrom_Line004_2_1_St" type="dead_end" x="0.00" y="30.00" incLanes="" intLanes="" shape="0.00,30.00 -3.20,30.00"/>
    <junction id="JuctionTo_Shape001_1_1_Ed" type="dead_end" x="30.00" y="0.00" incLanes="edgeId_Shape001_1_1_St_0" intLanes="" shape="30.00,-3.20 30.00,0.00"/>
    <junction id="cluster_JuctionFrom_Shape001_1_1_St_JuctionTo_Line004_2_1_Ed" type="traffic_light" x="5.00" y="5.08" incLanes="edgeId_Line004_2_1_St_0" intLanes=":cluster_JuctionFrom_Shape001_1_1_St_JuctionTo_Line004_2_1_Ed_0_0" shape="-3.20,10.15 0.00,10.15 0.28,7.05 1.11,4.51 2.50,2.54 4.44,1.13 6.94,0.28 10.00,0.00 10.00,-3.20 5.97,-2.83 2.67,-1.72 0.10,0.14 -1.73,2.73 -2.83,6.07">
        <request index="0" response="0" foes="0" cont="0"/>
    </junction>

    <connection from="edgeId_Line004_2_1_St" to="edgeId_Shape001_1_1_St" fromLane="0" toLane="0" via=":cluster_JuctionFrom_Shape001_1_1_St_JuctionTo_Line004_2_1_Ed_0_0" tl="cluster_JuctionFrom_Shape001_1_1_St_JuctionTo_Line004_2_1_Ed" linkIndex="0" dir="l" state="O"/>

    <connection from=":cluster_JuctionFrom_Shape001_1_1_St_JuctionTo_Line004_2_1_Ed_0" to="edgeId_Shape001_1_1_St" fromLane="0" toLane="0" dir="l" state="M"/>

</net>
