<?xml version="1.0" encoding="UTF-8"?>

<!-- generated on 2022-06-15 11:59:38 by Eclipse SUMO netedit Version 1.13.0
<configuration xmlns:xsi="http://www.w3.org/2001/XMLSchema-instance" xsi:noNamespaceSchemaLocation="http://sumo.dlr.de/xsd/netconvertConfiguration.xsd">

    <input>
        <sumo-net-file value="D:\@Tll_Training\SUMO_Projects\TwoSplinesJunctionJump\MergeSplineXMLForSUMOTrafficLanes.net.xml"/>
    </input>

    <output>
        <output-file value="D:\@Tll_Training\SUMO_Projects\TwoSplinesJunctionJump\MergeSplineXMLForSUMOTrafficLanes.net.xml"/>
    </output>

    <processing>
        <geometry.min-radius.fix.railways value="false"/>
        <geometry.max-grade.fix value="false"/>
        <offset.disable-normalization value="true"/>
        <lefthand value="false"/>
    </processing>

    <junctions>
        <no-internal-links value="true"/>
        <no-turnarounds value="true"/>
        <junctions.corner-detail value="5"/>
        <junctions.limit-turn-speed value="5.5"/>
        <rectangular-lane-cut value="false"/>
    </junctions>

    <pedestrian>
        <walkingareas value="false"/>
    </pedestrian>

    <report>
        <aggregate-warnings value="5"/>
    </report>

</configuration>
-->

<net version="1.9" junctionCornerDetail="5" limitTurnSpeed="5.50" xmlns:xsi="http://www.w3.org/2001/XMLSchema-instance" xsi:noNamespaceSchemaLocation="http://sumo.dlr.de/xsd/net_file.xsd">

    <location netOffset="-274535.29,-4297431.43" convBoundary="-2305.18,23.79,-2258.26,72.30" origBoundary="-77.596256,38.797200,-77.215237,38.890060" projParameter="+proj=utm +zone=18 +ellps=WGS84 +datum=WGS84 +units=m +no_defs"/>

    <type id="highway.bridleway" priority="1" numLanes="1" speed="2.78" allow="pedestrian" oneway="1" width="2.00"/>
    <type id="highway.bus_guideway" priority="1" numLanes="1" speed="27.78" allow="bus" oneway="1"/>
    <type id="highway.cycleway" priority="1" numLanes="1" speed="8.33" allow="bicycle" oneway="0" width="1.00"/>
    <type id="highway.footway" priority="1" numLanes="1" speed="2.78" allow="pedestrian" oneway="1" width="2.00"/>
    <type id="highway.ford" priority="1" numLanes="1" speed="2.78" allow="army" oneway="0"/>
    <type id="highway.living_street" priority="2" numLanes="1" speed="2.78" disallow="tram rail_urban rail rail_electric rail_fast ship" oneway="0"/>
    <type id="highway.motorway" priority="14" numLanes="2" speed="39.44" allow="private emergency authority army vip passenger hov taxi bus coach delivery truck trailer motorcycle evehicle custom1 custom2" oneway="1"/>
    <type id="highway.motorway_link" priority="9" numLanes="1" speed="22.22" allow="private emergency authority army vip passenger hov taxi bus coach delivery truck trailer motorcycle evehicle custom1 custom2" oneway="1"/>
    <type id="highway.path" priority="1" numLanes="1" speed="2.78" allow="pedestrian bicycle" oneway="0" width="2.00"/>
    <type id="highway.pedestrian" priority="1" numLanes="1" speed="2.78" allow="pedestrian" oneway="1" width="2.00"/>
    <type id="highway.primary" priority="12" numLanes="2" speed="27.78" disallow="tram rail_urban rail rail_electric rail_fast ship" oneway="0"/>
    <type id="highway.primary_link" priority="7" numLanes="1" speed="22.22" disallow="tram rail_urban rail rail_electric rail_fast ship" oneway="0"/>
    <type id="highway.raceway" priority="15" numLanes="2" speed="83.33" allow="vip" oneway="0"/>
    <type id="highway.residential" priority="3" numLanes="1" speed="13.89" disallow="tram rail_urban rail rail_electric rail_fast ship" oneway="0"/>
    <type id="highway.secondary" priority="11" numLanes="1" speed="27.78" disallow="tram rail_urban rail rail_electric rail_fast ship" oneway="0"/>
    <type id="highway.secondary_link" priority="6" numLanes="1" speed="22.22" disallow="tram rail_urban rail rail_electric rail_fast ship" oneway="0"/>
    <type id="highway.service" priority="1" numLanes="1" speed="5.56" allow="pedestrian delivery bicycle" oneway="0"/>
    <type id="highway.stairs" priority="1" numLanes="1" speed="1.39" allow="pedestrian" oneway="1" width="2.00"/>
    <type id="highway.step" priority="1" numLanes="1" speed="1.39" allow="pedestrian" oneway="1" width="2.00"/>
    <type id="highway.steps" priority="1" numLanes="1" speed="1.39" allow="pedestrian" oneway="1" width="2.00"/>
    <type id="highway.tertiary" priority="10" numLanes="1" speed="22.22" disallow="tram rail_urban rail rail_electric rail_fast ship" oneway="0"/>
    <type id="highway.tertiary_link" priority="5" numLanes="1" speed="22.22" disallow="tram rail_urban rail rail_electric rail_fast ship" oneway="0"/>
    <type id="highway.track" priority="1" numLanes="1" speed="5.56" allow="pedestrian motorcycle moped bicycle" oneway="0"/>
    <type id="highway.trunk" priority="13" numLanes="2" speed="27.78" disallow="pedestrian bicycle tram rail_urban rail rail_electric rail_fast ship" oneway="0"/>
    <type id="highway.trunk_link" priority="8" numLanes="1" speed="22.22" disallow="pedestrian bicycle tram rail_urban rail rail_electric rail_fast ship" oneway="0"/>
    <type id="highway.unclassified" priority="4" numLanes="1" speed="13.89" disallow="tram rail_urban rail rail_electric rail_fast ship" oneway="0"/>
    <type id="highway.unsurfaced" priority="1" numLanes="1" speed="8.33" disallow="tram rail_urban rail rail_electric rail_fast ship" oneway="0"/>
    <type id="railway.highspeed" priority="21" numLanes="1" speed="69.44" allow="rail_fast" oneway="1"/>
    <type id="railway.light_rail" priority="19" numLanes="1" speed="27.78" allow="rail_urban" oneway="1"/>
    <type id="railway.preserved" priority="16" numLanes="1" speed="27.78" allow="rail" oneway="1"/>
    <type id="railway.rail" priority="20" numLanes="1" speed="44.44" allow="rail" oneway="1"/>
    <type id="railway.subway" priority="18" numLanes="1" speed="27.78" allow="rail_urban" oneway="1"/>
    <type id="railway.tram" priority="17" numLanes="1" speed="13.89" allow="tram" oneway="1"/>

    <edge id="edgeId_Shape001_2_1_St" from="JuctionTo_Shape003_1_1_Ed-JuctionFrom_Shape001_2_1_St" to="JuctionTo_Shape001_2_1_Ed-JuctionFrom_Shape002_3_1_St" priority="14" type="highway.motorway" spreadType="center" shape="-2289.15,23.96,-6.82 -2293.99,25.26,-6.80 -2298.14,28.01,-6.80 -2301.06,32.03,-6.78 -2302.47,36.81,-6.70 -2303.19,41.76,-6.58">
        <lane id="edgeId_Shape001_2_1_St_0" index="0" allow="private emergency authority army vip passenger hov taxi bus coach delivery truck trailer motorcycle evehicle custom1 custom2" speed="18.06" length="24.95" shape="-2289.35,24.02,-6.82 -2293.99,25.26,-6.80 -2298.14,28.01,-6.80 -2301.06,32.03,-6.78 -2302.47,36.81,-6.70 -2303.17,41.63,-6.59"/>
    </edge>
    <edge id="edgeId_Shape002_3_1_St" from="JuctionTo_Shape001_2_1_Ed-JuctionFrom_Shape002_3_1_St" to="JuctionTo_Shape002_3_1_Ed" priority="14" type="highway.motorway" spreadType="center" shape="-2303.19,41.76,-6.58 -2303.76,46.73,-6.51 -2304.14,51.70,-6.43 -2304.43,56.69,-6.33 -2304.64,61.68,-6.23 -2304.86,66.68,-6.14 -2305.17,71.68,-6.05 -2305.18,72.30,-6.03">
        <lane id="edgeId_Shape002_3_1_St_0" index="0" allow="private emergency authority army vip passenger hov taxi bus coach delivery truck trailer motorcycle evehicle custom1 custom2" speed="18.06" length="30.62" shape="-2303.20,41.89,-6.58 -2303.76,46.73,-6.51 -2304.14,51.70,-6.43 -2304.43,56.69,-6.33 -2304.64,61.68,-6.23 -2304.86,66.68,-6.14 -2305.17,71.68,-6.05 -2305.18,72.30,-6.03"/>
    </edge>
    <edge id="edgeId_Shape003_1_1_St" from="JuctionFrom_Shape003_1_1_St" to="JuctionTo_Shape003_1_1_Ed-JuctionFrom_Shape001_2_1_St" priority="14" type="highway.motorway" spreadType="center" shape="-2258.26,23.79,-6.29 -2263.26,23.82,-6.38 -2268.26,23.84,-6.46 -2273.25,23.87,-6.54 -2278.25,23.90,-6.62 -2283.25,23.93,-6.70 -2288.25,23.96,-6.80 -2289.15,23.96,-6.82">
        <lane id="edgeId_Shape003_1_1_St_0" index="0" allow="private emergency authority army vip passenger hov taxi bus coach delivery truck trailer motorcycle evehicle custom1 custom2" speed="18.06" length="30.90" shape="-2258.26,23.79,-6.29 -2263.26,23.82,-6.38 -2268.26,23.84,-6.46 -2273.25,23.87,-6.54 -2278.25,23.90,-6.62 -2283.25,23.93,-6.70 -2288.25,23.96,-6.80 -2288.94,23.96,-6.82"/>
    </edge>

    <tlLogic id="JuctionTo_Shape001_2_1_Ed-JuctionFrom_Shape002_3_1_St" type="static" programID="0" offset="0">
        <phase duration="81" state="G"/>
        <phase duration="4"  state="y"/>
        <phase duration="5"  state="r"/>
    </tlLogic>

    <junction id="JuctionFrom_Shape003_1_1_St" type="dead_end" x="-2258.26" y="23.79" z="-6.29" incLanes="" intLanes="" shape="-2258.27,22.19,-6.29 -2258.25,25.39,-6.29"/>
    <junction id="JuctionTo_Shape001_2_1_Ed-JuctionFrom_Shape002_3_1_St" type="traffic_light" x="-2303.19" y="41.76" z="-6.58" incLanes="edgeId_Shape001_2_1_St_0" intLanes="" shape="-2301.59,41.87,-6.58 -2304.76,41.40,-6.58 -2304.79,41.70,-6.58 -2301.61,42.07,-6.58">
        <request index="0" response="0" foes="0"/>
    </junction>
    <junction id="JuctionTo_Shape002_3_1_Ed" type="dead_end" x="-2305.18" y="72.30" z="-6.03" incLanes="edgeId_Shape002_3_1_St_0" intLanes="" shape="-2303.58,72.33,-6.03 -2306.78,72.28,-6.03"/>
    <junction id="JuctionTo_Shape003_1_1_Ed-JuctionFrom_Shape001_2_1_St" type="priority" x="-2289.15" y="23.96" z="-6.82" incLanes="edgeId_Shape003_1_1_St_0" intLanes="" shape="-2288.93,25.56,-6.82 -2288.95,22.36,-6.82 -2289.26,22.37,-6.82 -2289.36,22.38,-6.82 -2289.47,22.40,-6.82 -2289.60,22.43,-6.82 -2289.76,22.47,-6.82">
        <request index="0" response="0" foes="0"/>
    </junction>

    <connection from="edgeId_Shape001_2_1_St" to="edgeId_Shape002_3_1_St" fromLane="0" toLane="0" tl="JuctionTo_Shape001_2_1_Ed-JuctionFrom_Shape002_3_1_St" linkIndex="0" dir="s" state="O"/>
    <connection from="edgeId_Shape003_1_1_St" to="edgeId_Shape001_2_1_St" fromLane="0" toLane="0" dir="s" state="M"/>

</net>
