<?xml version="1.0" encoding="UTF-8"?>

<!-- generated on 2022-06-15 13:00:24 by Eclipse SUMO netedit Version 1.13.0
<configuration xmlns:xsi="http://www.w3.org/2001/XMLSchema-instance" xsi:noNamespaceSchemaLocation="http://sumo.dlr.de/xsd/netconvertConfiguration.xsd">

    <input>
        <sumo-net-file value="D:\@Tll_Training\SUMO_Projects\TwoSplinesJunctionJump\SignalTest.net.xml"/>
    </input>

    <output>
        <output-file value="D:\@Tll_Training\SUMO_Projects\TwoSplinesJunctionJump\SignalTest.net.xml"/>
    </output>

    <processing>
        <geometry.min-radius.fix.railways value="false"/>
        <geometry.max-grade.fix value="false"/>
        <offset.disable-normalization value="true"/>
        <lefthand value="false"/>
    </processing>

    <junctions>
        <no-internal-links value="true"/>
        <no-turnarounds value="true"/>
        <junctions.corner-detail value="5"/>
        <junctions.limit-turn-speed value="5.5"/>
        <rectangular-lane-cut value="false"/>
    </junctions>

    <pedestrian>
        <walkingareas value="false"/>
    </pedestrian>

    <report>
        <aggregate-warnings value="5"/>
    </report>

</configuration>
-->

<net version="1.9" junctionCornerDetail="5" limitTurnSpeed="5.50" xmlns:xsi="http://www.w3.org/2001/XMLSchema-instance" xsi:noNamespaceSchemaLocation="http://sumo.dlr.de/xsd/net_file.xsd">

    <location netOffset="-274535.29,-4297431.43" convBoundary="-3426.26,24.83,-2340.04,924.99" origBoundary="-77.596256,38.797200,-77.215237,38.890060" projParameter="+proj=utm +zone=18 +ellps=WGS84 +datum=WGS84 +units=m +no_defs"/>

    <type id="highway.bridleway" priority="1" numLanes="1" speed="2.78" allow="pedestrian" oneway="1" width="2.00"/>
    <type id="highway.bus_guideway" priority="1" numLanes="1" speed="27.78" allow="bus" oneway="1"/>
    <type id="highway.cycleway" priority="1" numLanes="1" speed="8.33" allow="bicycle" oneway="0" width="1.00"/>
    <type id="highway.footway" priority="1" numLanes="1" speed="2.78" allow="pedestrian" oneway="1" width="2.00"/>
    <type id="highway.ford" priority="1" numLanes="1" speed="2.78" allow="army" oneway="0"/>
    <type id="highway.living_street" priority="2" numLanes="1" speed="2.78" disallow="tram rail_urban rail rail_electric rail_fast ship" oneway="0"/>
    <type id="highway.motorway" priority="14" numLanes="2" speed="39.44" allow="private emergency authority army vip passenger hov taxi bus coach delivery truck trailer motorcycle evehicle custom1 custom2" oneway="1"/>
    <type id="highway.motorway_link" priority="9" numLanes="1" speed="22.22" allow="private emergency authority army vip passenger hov taxi bus coach delivery truck trailer motorcycle evehicle custom1 custom2" oneway="1"/>
    <type id="highway.path" priority="1" numLanes="1" speed="2.78" allow="pedestrian bicycle" oneway="0" width="2.00"/>
    <type id="highway.pedestrian" priority="1" numLanes="1" speed="2.78" allow="pedestrian" oneway="1" width="2.00"/>
    <type id="highway.primary" priority="12" numLanes="2" speed="27.78" disallow="tram rail_urban rail rail_electric rail_fast ship" oneway="0"/>
    <type id="highway.primary_link" priority="7" numLanes="1" speed="22.22" disallow="tram rail_urban rail rail_electric rail_fast ship" oneway="0"/>
    <type id="highway.raceway" priority="15" numLanes="2" speed="83.33" allow="vip" oneway="0"/>
    <type id="highway.residential" priority="3" numLanes="1" speed="13.89" disallow="tram rail_urban rail rail_electric rail_fast ship" oneway="0"/>
    <type id="highway.secondary" priority="11" numLanes="1" speed="27.78" disallow="tram rail_urban rail rail_electric rail_fast ship" oneway="0"/>
    <type id="highway.secondary_link" priority="6" numLanes="1" speed="22.22" disallow="tram rail_urban rail rail_electric rail_fast ship" oneway="0"/>
    <type id="highway.service" priority="1" numLanes="1" speed="5.56" allow="pedestrian delivery bicycle" oneway="0"/>
    <type id="highway.stairs" priority="1" numLanes="1" speed="1.39" allow="pedestrian" oneway="1" width="2.00"/>
    <type id="highway.step" priority="1" numLanes="1" speed="1.39" allow="pedestrian" oneway="1" width="2.00"/>
    <type id="highway.steps" priority="1" numLanes="1" speed="1.39" allow="pedestrian" oneway="1" width="2.00"/>
    <type id="highway.tertiary" priority="10" numLanes="1" speed="22.22" disallow="tram rail_urban rail rail_electric rail_fast ship" oneway="0"/>
    <type id="highway.tertiary_link" priority="5" numLanes="1" speed="22.22" disallow="tram rail_urban rail rail_electric rail_fast ship" oneway="0"/>
    <type id="highway.track" priority="1" numLanes="1" speed="5.56" allow="pedestrian motorcycle moped bicycle" oneway="0"/>
    <type id="highway.trunk" priority="13" numLanes="2" speed="27.78" disallow="pedestrian bicycle tram rail_urban rail rail_electric rail_fast ship" oneway="0"/>
    <type id="highway.trunk_link" priority="8" numLanes="1" speed="22.22" disallow="pedestrian bicycle tram rail_urban rail rail_electric rail_fast ship" oneway="0"/>
    <type id="highway.unclassified" priority="4" numLanes="1" speed="13.89" disallow="tram rail_urban rail rail_electric rail_fast ship" oneway="0"/>
    <type id="highway.unsurfaced" priority="1" numLanes="1" speed="8.33" disallow="tram rail_urban rail rail_electric rail_fast ship" oneway="0"/>
    <type id="railway.highspeed" priority="21" numLanes="1" speed="69.44" allow="rail_fast" oneway="1"/>
    <type id="railway.light_rail" priority="19" numLanes="1" speed="27.78" allow="rail_urban" oneway="1"/>
    <type id="railway.preserved" priority="16" numLanes="1" speed="27.78" allow="rail" oneway="1"/>
    <type id="railway.rail" priority="20" numLanes="1" speed="44.44" allow="rail" oneway="1"/>
    <type id="railway.subway" priority="18" numLanes="1" speed="27.78" allow="rail_urban" oneway="1"/>
    <type id="railway.tram" priority="17" numLanes="1" speed="13.89" allow="tram" oneway="1"/>

    <edge id="edgeId_Shape001_2_1_St" from="JuctionTo_Shape002_1_1_Ed-JuctionFrom_Shape001_2_1_St" to="JuctionTo_Shape001_2_1_Ed-JuctionFrom_Shape003_3_1_St" priority="14" type="highway.motorway" spreadType="center" shape="-3038.98,56.67,-6.03 -3043.97,56.98,-6.05 -3048.96,57.31,-6.08 -3053.94,57.69,-6.10 -3058.92,58.16,-6.13 -3063.89,58.72,-6.15 -3068.85,59.35,-6.17 -3073.79,60.06,-6.19 -3078.72,60.87,-6.21 -3083.64,61.78,-6.23 -3088.54,62.77,-6.25 -3093.42,63.85,-6.26 -3098.28,65.03,-6.28 -3103.10,66.34,-6.29 -3107.89,67.76,-6.30 -3112.66,69.27,-6.31 -3117.41,70.82,-6.32 -3122.16,72.37,-6.33 -3126.90,73.96,-6.34 -3131.62,75.62,-6.34 -3136.28,77.42,-6.35 -3140.89,79.36,-6.35 -3145.44,81.42,-6.35 -3149.96,83.57,-6.35 -3154.44,85.79,-6.35 -3158.89,88.05,-6.34 -3163.31,90.38,-6.34 -3167.70,92.78,-6.34 -3172.03,95.27,-6.33 -3176.30,97.87,-6.32 -3180.50,100.58,-6.31 -3184.66,103.35,-6.30 -3188.80,106.15,-6.29 -3192.94,108.95,-6.27 -3197.07,111.77,-6.26 -3201.17,114.64,-6.24 -3205.22,117.56,-6.22 -3209.22,120.56,-6.20 -3213.17,123.62,-6.19 -3217.08,126.74,-6.17 -3220.96,129.89,-6.14 -3224.83,133.06,-6.12 -3228.66,136.27,-6.09 -3232.46,139.51,-6.07 -3236.25,142.77,-6.04 -3240.04,146.03,-6.01 -3243.82,149.30,-5.99 -3247.56,152.62,-5.96 -3251.24,156.00,-5.92 -3254.83,159.47,-5.89 -3258.36,163.01,-5.86 -3261.84,166.60,-5.83 -3265.29,170.22,-5.79 -3268.72,173.86,-5.75 -3272.12,177.52,-5.73 -3275.48,181.22,-5.70 -3278.80,184.97,-5.66 -3282.06,188.75,-5.62 -3285.29,192.57,-5.58 -3288.46,196.43,-5.54 -3291.58,200.33,-5.51 -3294.65,204.28,-5.47 -3297.66,208.26,-5.43 -3300.63,212.28,-5.39 -3303.56,216.33,-5.35 -3306.48,220.39,-5.30 -3309.36,224.47,-5.26 -3312.20,228.59,-5.22 -3314.97,232.75,-5.15 -3317.65,236.97,-5.06 -3320.26,241.24,-4.98 -3322.82,245.53,-4.96 -3325.36,249.83,-4.93 -3327.91,254.13,-4.90 -3330.44,258.45,-4.87 -3332.94,262.78,-4.84 -3335.39,267.13,-4.81 -3337.77,271.53,-4.78 -3340.10,275.95,-4.76 -3342.40,280.39,-4.73 -3344.68,284.84,-4.70 -3346.95,289.29,-4.67 -3349.21,293.75,-4.64 -3351.44,298.22,-4.61 -3353.61,302.73,-4.58 -3355.74,307.25,-4.55 -3357.82,311.80,-4.52 -3359.84,316.37,-4.49 -3361.80,320.96,-4.46 -3363.69,325.59,-4.43 -3365.50,330.25,-4.40 -3367.27,334.92,-4.37 -3369.01,339.61,-4.34 -3370.73,344.30,-4.31 -3372.43,349.00,-4.28 -3374.07,353.72,-4.24 -3375.65,358.46,-4.21 -3377.15,363.23,-4.18 -3378.59,368.02,-4.15 -3379.96,372.83,-4.12 -3381.29,377.65,-4.09 -3382.56,382.48,-4.06 -3383.78,387.33,-4.02 -3384.95,392.19,-3.99 -3386.05,397.06,-3.96 -3387.08,401.96,-3.93 -3388.04,406.86,-3.90">
        <lane id="edgeId_Shape001_2_1_St_0" index="0" allow="private emergency authority army vip passenger hov taxi bus coach delivery truck trailer motorcycle evehicle custom1 custom2" speed="18.06" length="529.86" shape="-3039.13,56.68,-6.03 -3043.97,56.98,-6.05 -3048.96,57.31,-6.08 -3053.94,57.69,-6.10 -3058.92,58.16,-6.13 -3063.89,58.72,-6.15 -3068.85,59.35,-6.17 -3073.79,60.06,-6.19 -3078.72,60.87,-6.21 -3083.64,61.78,-6.23 -3088.54,62.77,-6.25 -3093.42,63.85,-6.26 -3098.28,65.03,-6.28 -3103.10,66.34,-6.29 -3107.89,67.76,-6.30 -3112.66,69.27,-6.31 -3117.41,70.82,-6.32 -3122.16,72.37,-6.33 -3126.90,73.96,-6.34 -3131.62,75.62,-6.34 -3136.28,77.42,-6.35 -3140.89,79.36,-6.35 -3145.44,81.42,-6.35 -3149.96,83.57,-6.35 -3154.44,85.79,-6.35 -3158.89,88.05,-6.34 -3163.31,90.38,-6.34 -3167.70,92.78,-6.34 -3172.03,95.27,-6.33 -3176.30,97.87,-6.32 -3180.50,100.58,-6.31 -3184.66,103.35,-6.30 -3188.80,106.15,-6.29 -3192.94,108.95,-6.27 -3197.07,111.77,-6.26 -3201.17,114.64,-6.24 -3205.22,117.56,-6.22 -3209.22,120.56,-6.20 -3213.17,123.62,-6.19 -3217.08,126.74,-6.17 -3220.96,129.89,-6.14 -3224.83,133.06,-6.12 -3228.66,136.27,-6.09 -3232.46,139.51,-6.07 -3236.25,142.77,-6.04 -3240.04,146.03,-6.01 -3243.82,149.30,-5.99 -3247.56,152.62,-5.96 -3251.24,156.00,-5.92 -3254.83,159.47,-5.89 -3258.36,163.01,-5.86 -3261.84,166.60,-5.83 -3265.29,170.22,-5.79 -3268.72,173.86,-5.75 -3272.12,177.52,-5.73 -3275.48,181.22,-5.70 -3278.80,184.97,-5.66 -3282.06,188.75,-5.62 -3285.29,192.57,-5.58 -3288.46,196.43,-5.54 -3291.58,200.33,-5.51 -3294.65,204.28,-5.47 -3297.66,208.26,-5.43 -3300.63,212.28,-5.39 -3303.56,216.33,-5.35 -3306.48,220.39,-5.30 -3309.36,224.47,-5.26 -3312.20,228.59,-5.22 -3314.97,232.75,-5.15 -3317.65,236.97,-5.06 -3320.26,241.24,-4.98 -3322.82,245.53,-4.96 -3325.36,249.83,-4.93 -3327.91,254.13,-4.90 -3330.44,258.45,-4.87 -3332.94,262.78,-4.84 -3335.39,267.13,-4.81 -3337.77,271.53,-4.78 -3340.10,275.95,-4.76 -3342.40,280.39,-4.73 -3344.68,284.84,-4.70 -3346.95,289.29,-4.67 -3349.21,293.75,-4.64 -3351.44,298.22,-4.61 -3353.61,302.73,-4.58 -3355.74,307.25,-4.55 -3357.82,311.80,-4.52 -3359.84,316.37,-4.49 -3361.80,320.96,-4.46 -3363.69,325.59,-4.43 -3365.50,330.25,-4.40 -3367.27,334.92,-4.37 -3369.01,339.61,-4.34 -3370.73,344.30,-4.31 -3372.43,349.00,-4.28 -3374.07,353.72,-4.24 -3375.65,358.46,-4.21 -3377.15,363.23,-4.18 -3378.59,368.02,-4.15 -3379.96,372.83,-4.12 -3381.29,377.65,-4.09 -3382.56,382.48,-4.06 -3383.78,387.33,-4.02 -3384.95,392.19,-3.99 -3386.05,397.06,-3.96 -3387.08,401.96,-3.93 -3388.01,406.72,-3.90"/>
    </edge>
    <edge id="edgeId_Shape002_1_1_St" from="JuctionFrom_Shape002_1_1_St" to="JuctionTo_Shape002_1_1_Ed-JuctionFrom_Shape001_2_1_St" priority="14" type="highway.motorway" spreadType="center" shape="-2340.04,24.83,-6.94 -2345.08,24.94,-6.95 -2350.08,25.07,-6.96 -2355.08,25.20,-6.97 -2360.07,25.32,-6.97 -2365.07,25.45,-6.98 -2370.06,25.57,-6.98 -2375.06,25.70,-6.98 -2380.06,25.83,-6.99 -2385.05,25.97,-6.99 -2390.05,26.11,-7.00 -2395.04,26.25,-7.00 -2400.04,26.40,-7.00 -2405.03,26.54,-7.00 -2410.03,26.68,-7.00 -2415.02,26.83,-7.00 -2420.02,26.98,-7.00 -2425.02,27.12,-7.00 -2430.01,27.27,-7.00 -2435.01,27.42,-7.00 -2440.00,27.59,-7.00 -2445.00,27.76,-7.00 -2449.99,27.95,-6.99 -2454.99,28.14,-6.99 -2459.98,28.33,-6.99 -2464.97,28.52,-6.99 -2469.97,28.70,-6.98 -2474.96,28.88,-6.97 -2479.96,29.08,-6.97 -2484.95,29.29,-6.96 -2489.94,29.51,-6.96 -2494.93,29.73,-6.95 -2499.93,29.95,-6.94 -2504.92,30.17,-6.93 -2509.91,30.38,-6.92 -2514.90,30.60,-6.91 -2519.90,30.82,-6.90 -2524.89,31.05,-6.89 -2529.88,31.28,-6.88 -2534.87,31.51,-6.87 -2539.86,31.77,-6.86 -2544.85,32.04,-6.85 -2549.84,32.33,-6.83 -2554.83,32.63,-6.82 -2559.82,32.93,-6.80 -2564.81,33.22,-6.79 -2569.80,33.50,-6.77 -2574.79,33.79,-6.76 -2579.78,34.10,-6.74 -2584.76,34.43,-6.72 -2589.75,34.77,-6.70 -2594.73,35.13,-6.68 -2599.72,35.49,-6.66 -2604.70,35.86,-6.64 -2609.69,36.24,-6.62 -2614.67,36.61,-6.60 -2619.66,36.95,-6.58 -2624.65,37.26,-6.58 -2629.64,37.54,-6.55 -2634.63,37.81,-6.52 -2639.62,38.09,-6.47 -2644.61,38.37,-6.42 -2649.60,38.64,-6.36 -2654.59,38.93,-6.30 -2659.58,39.22,-6.25 -2664.56,39.53,-6.20 -2669.55,39.85,-6.15 -2674.54,40.18,-6.10 -2679.53,40.50,-6.05 -2684.51,40.81,-6.00 -2689.50,41.13,-5.95 -2694.49,41.44,-5.90 -2699.48,41.74,-5.84 -2704.47,42.03,-5.79 -2709.45,42.31,-5.74 -2714.44,42.60,-5.69 -2719.43,42.88,-5.64 -2724.42,43.17,-5.59 -2729.41,43.45,-5.54 -2734.40,43.74,-5.49 -2739.39,44.02,-5.44 -2744.38,44.31,-5.39 -2749.37,44.59,-5.34 -2754.36,44.88,-5.29 -2759.35,45.16,-5.24 -2764.34,45.45,-5.19 -2769.33,45.73,-5.14 -2774.31,46.01,-5.09 -2779.30,46.29,-5.04 -2784.29,46.57,-4.98 -2789.28,46.84,-4.93 -2794.27,47.12,-4.88 -2799.27,47.39,-4.83 -2804.26,47.67,-4.78 -2809.25,47.94,-4.73 -2814.24,48.22,-4.68 -2819.23,48.49,-4.63 -2824.22,48.77,-4.63 -2829.21,49.05,-4.64 -2834.20,49.32,-4.65 -2839.19,49.58,-4.66 -2844.18,49.80,-4.68 -2849.17,50.01,-4.71 -2854.17,50.20,-4.74 -2859.16,50.40,-4.78 -2864.15,50.61,-4.81 -2869.15,50.82,-4.85 -2874.14,51.03,-4.88 -2879.13,51.22,-4.92 -2884.13,51.39,-4.95 -2889.13,51.55,-4.99 -2894.13,51.70,-5.03 -2899.12,51.86,-5.06 -2904.12,52.03,-5.10 -2909.11,52.20,-5.14 -2914.11,52.37,-5.17 -2919.10,52.56,-5.21 -2924.10,52.77,-5.25 -2929.09,53.00,-5.29 -2934.08,53.22,-5.32 -2939.08,53.43,-5.36 -2944.07,53.59,-5.40 -2949.07,53.74,-5.43 -2954.06,53.88,-5.47 -2959.06,54.02,-5.51 -2964.05,54.15,-5.54 -2969.05,54.28,-5.58 -2974.05,54.41,-5.61 -2979.04,54.54,-5.65 -2984.04,54.69,-5.68 -2989.03,54.85,-5.72 -2994.03,55.00,-5.75 -2999.02,55.16,-5.78 -3004.02,55.30,-5.82 -3009.02,55.43,-5.85 -3014.01,55.58,-5.88 -3019.01,55.74,-5.91 -3024.01,55.94,-5.94 -3029.00,56.15,-5.97 -3033.99,56.39,-6.00 -3038.98,56.67,-6.03">
        <lane id="edgeId_Shape002_1_1_St_0" index="0" allow="private emergency authority army vip passenger hov taxi bus coach delivery truck trailer motorcycle evehicle custom1 custom2" speed="18.06" length="699.75" shape="-2340.04,24.83,-6.94 -2345.08,24.94,-6.95 -2350.08,25.07,-6.96 -2355.08,25.20,-6.97 -2360.07,25.32,-6.97 -2365.07,25.45,-6.98 -2370.06,25.57,-6.98 -2375.06,25.70,-6.98 -2380.06,25.83,-6.99 -2385.05,25.97,-6.99 -2390.05,26.11,-7.00 -2395.04,26.25,-7.00 -2400.04,26.40,-7.00 -2405.03,26.54,-7.00 -2410.03,26.68,-7.00 -2415.02,26.83,-7.00 -2420.02,26.98,-7.00 -2425.02,27.12,-7.00 -2430.01,27.27,-7.00 -2435.01,27.42,-7.00 -2440.00,27.59,-7.00 -2445.00,27.76,-7.00 -2449.99,27.95,-6.99 -2454.99,28.14,-6.99 -2459.98,28.33,-6.99 -2464.97,28.52,-6.99 -2469.97,28.70,-6.98 -2474.96,28.88,-6.97 -2479.96,29.08,-6.97 -2484.95,29.29,-6.96 -2489.94,29.51,-6.96 -2494.93,29.73,-6.95 -2499.93,29.95,-6.94 -2504.92,30.17,-6.93 -2509.91,30.38,-6.92 -2514.90,30.60,-6.91 -2519.90,30.82,-6.90 -2524.89,31.05,-6.89 -2529.88,31.28,-6.88 -2534.87,31.51,-6.87 -2539.86,31.77,-6.86 -2544.85,32.04,-6.85 -2549.84,32.33,-6.83 -2554.83,32.63,-6.82 -2559.82,32.93,-6.80 -2564.81,33.22,-6.79 -2569.80,33.50,-6.77 -2574.79,33.79,-6.76 -2579.78,34.10,-6.74 -2584.76,34.43,-6.72 -2589.75,34.77,-6.70 -2594.73,35.13,-6.68 -2599.72,35.49,-6.66 -2604.70,35.86,-6.64 -2609.69,36.24,-6.62 -2614.67,36.61,-6.60 -2619.66,36.95,-6.58 -2624.65,37.26,-6.58 -2629.64,37.54,-6.55 -2634.63,37.81,-6.52 -2639.62,38.09,-6.47 -2644.61,38.37,-6.42 -2649.60,38.64,-6.36 -2654.59,38.93,-6.30 -2659.58,39.22,-6.25 -2664.56,39.53,-6.20 -2669.55,39.85,-6.15 -2674.54,40.18,-6.10 -2679.53,40.50,-6.05 -2684.51,40.81,-6.00 -2689.50,41.13,-5.95 -2694.49,41.44,-5.90 -2699.48,41.74,-5.84 -2704.47,42.03,-5.79 -2709.45,42.31,-5.74 -2714.44,42.60,-5.69 -2719.43,42.88,-5.64 -2724.42,43.17,-5.59 -2729.41,43.45,-5.54 -2734.40,43.74,-5.49 -2739.39,44.02,-5.44 -2744.38,44.31,-5.39 -2749.37,44.59,-5.34 -2754.36,44.88,-5.29 -2759.35,45.16,-5.24 -2764.34,45.45,-5.19 -2769.33,45.73,-5.14 -2774.31,46.01,-5.09 -2779.30,46.29,-5.04 -2784.29,46.57,-4.98 -2789.28,46.84,-4.93 -2794.27,47.12,-4.88 -2799.27,47.39,-4.83 -2804.26,47.67,-4.78 -2809.25,47.94,-4.73 -2814.24,48.22,-4.68 -2819.23,48.49,-4.63 -2824.22,48.77,-4.63 -2829.21,49.05,-4.64 -2834.20,49.32,-4.65 -2839.19,49.58,-4.66 -2844.18,49.80,-4.68 -2849.17,50.01,-4.71 -2854.17,50.20,-4.74 -2859.16,50.40,-4.78 -2864.15,50.61,-4.81 -2869.15,50.82,-4.85 -2874.14,51.03,-4.88 -2879.13,51.22,-4.92 -2884.13,51.39,-4.95 -2889.13,51.55,-4.99 -2894.13,51.70,-5.03 -2899.12,51.86,-5.06 -2904.12,52.03,-5.10 -2909.11,52.20,-5.14 -2914.11,52.37,-5.17 -2919.10,52.56,-5.21 -2924.10,52.77,-5.25 -2929.09,53.00,-5.29 -2934.08,53.22,-5.32 -2939.08,53.43,-5.36 -2944.07,53.59,-5.40 -2949.07,53.74,-5.43 -2954.06,53.88,-5.47 -2959.06,54.02,-5.51 -2964.05,54.15,-5.54 -2969.05,54.28,-5.58 -2974.05,54.41,-5.61 -2979.04,54.54,-5.65 -2984.04,54.69,-5.68 -2989.03,54.85,-5.72 -2994.03,55.00,-5.75 -2999.02,55.16,-5.78 -3004.02,55.30,-5.82 -3009.02,55.43,-5.85 -3014.01,55.58,-5.88 -3019.01,55.74,-5.91 -3024.01,55.94,-5.94 -3029.00,56.15,-5.97 -3033.99,56.39,-6.00 -3038.83,56.66,-6.02"/>
    </edge>
    <edge id="edgeId_Shape003_3_1_St" from="JuctionTo_Shape001_2_1_Ed-JuctionFrom_Shape003_3_1_St" to="JuctionTo_Shape003_3_1_Ed" priority="14" type="highway.motorway" spreadType="center" shape="-3388.04,406.86,-3.90 -3388.95,411.78,-3.86 -3389.86,416.69,-3.83 -3390.77,421.61,-3.80 -3391.67,426.52,-3.77 -3392.55,431.45,-3.73 -3393.36,436.38,-3.70 -3394.09,441.33,-3.67 -3394.76,446.28,-3.64 -3395.40,451.24,-3.60 -3396.05,456.19,-3.57 -3396.73,461.14,-3.54 -3397.43,466.09,-3.51 -3398.10,471.04,-3.47 -3398.72,476.00,-3.44 -3399.26,480.97,-3.41 -3399.74,485.95,-3.38 -3400.19,490.92,-3.34 -3400.65,495.90,-3.31 -3401.15,500.87,-3.28 -3401.66,505.85,-3.25 -3402.15,510.82,-3.21 -3402.58,515.80,-3.18 -3402.93,520.78,-3.15 -3403.21,525.77,-3.11 -3403.46,530.77,-3.08 -3403.71,535.76,-3.05 -3403.98,540.75,-3.02 -3404.24,545.74,-2.98 -3404.50,550.73,-2.95 -3404.75,555.72,-2.92 -3405.00,560.71,-2.88 -3405.25,565.70,-2.85 -3405.49,570.69,-2.82 -3405.72,575.69,-2.79 -3405.93,580.68,-2.75 -3406.14,585.67,-2.72 -3406.34,590.67,-2.69 -3406.54,595.66,-2.66 -3406.75,600.65,-2.62 -3406.95,605.65,-2.59 -3407.15,610.64,-2.57 -3407.36,615.63,-2.55 -3407.58,620.63,-2.53 -3407.80,625.62,-2.51 -3408.02,630.61,-2.49 -3408.25,635.61,-2.47 -3408.47,640.60,-2.44 -3408.69,645.59,-2.40 -3408.91,650.58,-2.37 -3409.14,655.58,-2.33 -3409.37,660.57,-2.29 -3409.60,665.56,-2.26 -3409.83,670.55,-2.22 -3410.07,675.55,-2.18 -3410.30,680.54,-2.14 -3410.54,685.53,-2.10 -3410.78,690.52,-2.07 -3411.01,695.51,-2.03 -3411.25,700.50,-1.99 -3411.49,705.50,-1.95 -3411.72,710.49,-1.92 -3411.96,715.48,-1.88 -3412.19,720.47,-1.84 -3412.43,725.47,-1.80 -3412.66,730.46,-1.76 -3412.90,735.45,-1.73 -3413.13,740.44,-1.69 -3413.37,745.44,-1.65 -3413.60,750.43,-1.61 -3413.83,755.42,-1.57 -3414.06,760.41,-1.54 -3414.29,765.41,-1.50 -3414.52,770.40,-1.46 -3414.74,775.39,-1.42 -3414.97,780.38,-1.38 -3415.19,785.38,-1.35 -3415.41,790.37,-1.31 -3415.64,795.36,-1.27 -3415.87,800.36,-1.23 -3416.09,805.35,-1.19 -3416.32,810.34,-1.15 -3416.55,815.33,-1.12 -3416.76,820.33,-1.08 -3416.96,825.32,-1.04 -3417.18,830.32,-1.00 -3417.41,835.31,-0.97 -3417.68,840.30,-0.94 -3417.98,845.29,-0.90 -3418.28,850.27,-0.87 -3418.58,855.26,-0.82 -3418.85,860.25,-0.76 -3419.10,865.25,-0.75 -3419.36,870.24,-0.83 -3419.67,875.23,-0.92 -3420.01,880.21,-0.93 -3420.37,885.20,-0.95 -3420.80,890.18,-0.96 -3421.33,895.15,-0.98 -3422.01,900.10,-1.00 -3422.80,905.04,-1.02 -3423.65,909.96,-1.04 -3424.51,914.89,-1.06 -3425.33,919.82,-1.08 -3426.21,924.74,-1.09 -3426.26,924.99,-1.10">
        <lane id="edgeId_Shape003_3_1_St_0" index="0" allow="private emergency authority army vip passenger hov taxi bus coach delivery truck trailer motorcycle evehicle custom1 custom2" speed="18.06" length="520.06" shape="-3388.07,407.01,-3.89 -3388.95,411.78,-3.86 -3389.86,416.69,-3.83 -3390.77,421.61,-3.80 -3391.67,426.52,-3.77 -3392.55,431.45,-3.73 -3393.36,436.38,-3.70 -3394.09,441.33,-3.67 -3394.76,446.28,-3.64 -3395.40,451.24,-3.60 -3396.05,456.19,-3.57 -3396.73,461.14,-3.54 -3397.43,466.09,-3.51 -3398.10,471.04,-3.47 -3398.72,476.00,-3.44 -3399.26,480.97,-3.41 -3399.74,485.95,-3.38 -3400.19,490.92,-3.34 -3400.65,495.90,-3.31 -3401.15,500.87,-3.28 -3401.66,505.85,-3.25 -3402.15,510.82,-3.21 -3402.58,515.80,-3.18 -3402.93,520.78,-3.15 -3403.21,525.77,-3.11 -3403.46,530.77,-3.08 -3403.71,535.76,-3.05 -3403.98,540.75,-3.02 -3404.24,545.74,-2.98 -3404.50,550.73,-2.95 -3404.75,555.72,-2.92 -3405.00,560.71,-2.88 -3405.25,565.70,-2.85 -3405.49,570.69,-2.82 -3405.72,575.69,-2.79 -3405.93,580.68,-2.75 -3406.14,585.67,-2.72 -3406.34,590.67,-2.69 -3406.54,595.66,-2.66 -3406.75,600.65,-2.62 -3406.95,605.65,-2.59 -3407.15,610.64,-2.57 -3407.36,615.63,-2.55 -3407.58,620.63,-2.53 -3407.80,625.62,-2.51 -3408.02,630.61,-2.49 -3408.25,635.61,-2.47 -3408.47,640.60,-2.44 -3408.69,645.59,-2.40 -3408.91,650.58,-2.37 -3409.14,655.58,-2.33 -3409.37,660.57,-2.29 -3409.60,665.56,-2.26 -3409.83,670.55,-2.22 -3410.07,675.55,-2.18 -3410.30,680.54,-2.14 -3410.54,685.53,-2.10 -3410.78,690.52,-2.07 -3411.01,695.51,-2.03 -3411.25,700.50,-1.99 -3411.49,705.50,-1.95 -3411.72,710.49,-1.92 -3411.96,715.48,-1.88 -3412.19,720.47,-1.84 -3412.43,725.47,-1.80 -3412.66,730.46,-1.76 -3412.90,735.45,-1.73 -3413.13,740.44,-1.69 -3413.37,745.44,-1.65 -3413.60,750.43,-1.61 -3413.83,755.42,-1.57 -3414.06,760.41,-1.54 -3414.29,765.41,-1.50 -3414.52,770.40,-1.46 -3414.74,775.39,-1.42 -3414.97,780.38,-1.38 -3415.19,785.38,-1.35 -3415.41,790.37,-1.31 -3415.64,795.36,-1.27 -3415.87,800.36,-1.23 -3416.09,805.35,-1.19 -3416.32,810.34,-1.15 -3416.55,815.33,-1.12 -3416.76,820.33,-1.08 -3416.96,825.32,-1.04 -3417.18,830.32,-1.00 -3417.41,835.31,-0.97 -3417.68,840.30,-0.94 -3417.98,845.29,-0.90 -3418.28,850.27,-0.87 -3418.58,855.26,-0.82 -3418.85,860.25,-0.76 -3419.10,865.25,-0.75 -3419.36,870.24,-0.83 -3419.67,875.23,-0.92 -3420.01,880.21,-0.93 -3420.37,885.20,-0.95 -3420.80,890.18,-0.96 -3421.33,895.15,-0.98 -3422.01,900.10,-1.00 -3422.80,905.04,-1.02 -3423.65,909.96,-1.04 -3424.51,914.89,-1.06 -3425.33,919.82,-1.08 -3426.21,924.74,-1.09 -3426.26,924.99,-1.10"/>
    </edge>

    <tlLogic id="JuctionTo_Shape002_1_1_Ed-JuctionFrom_Shape001_2_1_St" type="static" programID="0" offset="0">
        <phase duration="81" state="G"/>
        <phase duration="4"  state="y"/>
        <phase duration="5"  state="r"/>
    </tlLogic>

    <junction id="JuctionFrom_Shape002_1_1_St" type="dead_end" x="-2340.04" y="24.83" z="-6.94" incLanes="" intLanes="" shape="-2340.08,23.23,-6.94 -2340.00,26.43,-6.94"/>
    <junction id="JuctionTo_Shape001_2_1_Ed-JuctionFrom_Shape003_3_1_St" type="priority" x="-3388.04" y="406.86" z="-3.90" incLanes="edgeId_Shape001_2_1_St_0" intLanes="" shape="-3386.44,407.02,-3.90 -3389.58,406.41,-3.90 -3389.64,406.71,-3.90 -3386.49,407.30,-3.90">
        <request index="0" response="0" foes="0"/>
    </junction>
    <junction id="JuctionTo_Shape002_1_1_Ed-JuctionFrom_Shape001_2_1_St" type="traffic_light" x="-3038.98" y="56.67" z="-6.03" incLanes="edgeId_Shape002_1_1_St_0" intLanes="" shape="-3038.74,58.26,-6.03 -3038.92,55.07,-6.03 -3039.23,55.08,-6.03 -3039.03,58.28,-6.03">
        <request index="0" response="0" foes="0"/>
    </junction>
    <junction id="JuctionTo_Shape003_3_1_Ed" type="dead_end" x="-3426.26" y="924.99" z="-1.10" incLanes="edgeId_Shape003_3_1_St_0" intLanes="" shape="-3424.69,925.31,-1.10 -3427.83,924.67,-1.10"/>

    <connection from="edgeId_Shape001_2_1_St" to="edgeId_Shape003_3_1_St" fromLane="0" toLane="0" dir="s" state="M"/>
    <connection from="edgeId_Shape002_1_1_St" to="edgeId_Shape001_2_1_St" fromLane="0" toLane="0" tl="JuctionTo_Shape002_1_1_Ed-JuctionFrom_Shape001_2_1_St" linkIndex="0" dir="s" state="O"/>

</net>
