<?xml version="1.0" encoding="UTF-8"?>

<!-- generated on 2022-06-15 11:03:56 by Eclipse SUMO netedit Version 1.13.0
<configuration xmlns:xsi="http://www.w3.org/2001/XMLSchema-instance" xsi:noNamespaceSchemaLocation="http://sumo.dlr.de/xsd/netconvertConfiguration.xsd">

    <input>
        <sumo-net-file value="D:\@Tll_Training\SUMO_Projects\TwoSplinesJunctionJump\test.net.xml"/>
    </input>

    <output>
        <output-file value="D:\@Tll_Training\SUMO_Projects\TwoSplinesJunctionJump\test.net.xml"/>
    </output>

    <processing>
        <geometry.min-radius.fix.railways value="false"/>
        <geometry.max-grade.fix value="false"/>
        <offset.disable-normalization value="true"/>
        <lefthand value="false"/>
    </processing>

    <junctions>
        <no-turnarounds value="true"/>
        <junctions.corner-detail value="5"/>
        <junctions.limit-turn-speed value="5.5"/>
        <rectangular-lane-cut value="false"/>
    </junctions>

    <pedestrian>
        <walkingareas value="false"/>
    </pedestrian>

    <report>
        <aggregate-warnings value="5"/>
    </report>

</configuration>
-->

<net version="1.9" junctionCornerDetail="5" limitTurnSpeed="5.50" xmlns:xsi="http://www.w3.org/2001/XMLSchema-instance" xsi:noNamespaceSchemaLocation="http://sumo.dlr.de/xsd/net_file.xsd">

    <location netOffset="-274535.29,-4297431.43" convBoundary="-6.93,0.00,84.35,62.30" origBoundary="-77.596256,38.797200,-77.215237,38.890060" projParameter="+proj=utm +zone=18 +ellps=WGS84 +datum=WGS84 +units=m +no_defs"/>

    <type id="highway.bridleway" priority="1" numLanes="1" speed="2.78" allow="pedestrian" oneway="1" width="2.00"/>
    <type id="highway.bus_guideway" priority="1" numLanes="1" speed="27.78" allow="bus" oneway="1"/>
    <type id="highway.cycleway" priority="1" numLanes="1" speed="8.33" allow="bicycle" oneway="0" width="1.00"/>
    <type id="highway.footway" priority="1" numLanes="1" speed="2.78" allow="pedestrian" oneway="1" width="2.00"/>
    <type id="highway.ford" priority="1" numLanes="1" speed="2.78" allow="army" oneway="0"/>
    <type id="highway.living_street" priority="2" numLanes="1" speed="2.78" disallow="tram rail_urban rail rail_electric rail_fast ship" oneway="0"/>
    <type id="highway.motorway" priority="14" numLanes="2" speed="39.44" allow="private emergency authority army vip passenger hov taxi bus coach delivery truck trailer motorcycle evehicle custom1 custom2" oneway="1"/>
    <type id="highway.motorway_link" priority="9" numLanes="1" speed="22.22" allow="private emergency authority army vip passenger hov taxi bus coach delivery truck trailer motorcycle evehicle custom1 custom2" oneway="1"/>
    <type id="highway.path" priority="1" numLanes="1" speed="2.78" allow="pedestrian bicycle" oneway="0" width="2.00"/>
    <type id="highway.pedestrian" priority="1" numLanes="1" speed="2.78" allow="pedestrian" oneway="1" width="2.00"/>
    <type id="highway.primary" priority="12" numLanes="2" speed="27.78" disallow="tram rail_urban rail rail_electric rail_fast ship" oneway="0"/>
    <type id="highway.primary_link" priority="7" numLanes="1" speed="22.22" disallow="tram rail_urban rail rail_electric rail_fast ship" oneway="0"/>
    <type id="highway.raceway" priority="15" numLanes="2" speed="83.33" allow="vip" oneway="0"/>
    <type id="highway.residential" priority="3" numLanes="1" speed="13.89" disallow="tram rail_urban rail rail_electric rail_fast ship" oneway="0"/>
    <type id="highway.secondary" priority="11" numLanes="1" speed="27.78" disallow="tram rail_urban rail rail_electric rail_fast ship" oneway="0"/>
    <type id="highway.secondary_link" priority="6" numLanes="1" speed="22.22" disallow="tram rail_urban rail rail_electric rail_fast ship" oneway="0"/>
    <type id="highway.service" priority="1" numLanes="1" speed="5.56" allow="pedestrian delivery bicycle" oneway="0"/>
    <type id="highway.stairs" priority="1" numLanes="1" speed="1.39" allow="pedestrian" oneway="1" width="2.00"/>
    <type id="highway.step" priority="1" numLanes="1" speed="1.39" allow="pedestrian" oneway="1" width="2.00"/>
    <type id="highway.steps" priority="1" numLanes="1" speed="1.39" allow="pedestrian" oneway="1" width="2.00"/>
    <type id="highway.tertiary" priority="10" numLanes="1" speed="22.22" disallow="tram rail_urban rail rail_electric rail_fast ship" oneway="0"/>
    <type id="highway.tertiary_link" priority="5" numLanes="1" speed="22.22" disallow="tram rail_urban rail rail_electric rail_fast ship" oneway="0"/>
    <type id="highway.track" priority="1" numLanes="1" speed="5.56" allow="pedestrian motorcycle moped bicycle" oneway="0"/>
    <type id="highway.trunk" priority="13" numLanes="2" speed="27.78" disallow="pedestrian bicycle tram rail_urban rail rail_electric rail_fast ship" oneway="0"/>
    <type id="highway.trunk_link" priority="8" numLanes="1" speed="22.22" disallow="pedestrian bicycle tram rail_urban rail rail_electric rail_fast ship" oneway="0"/>
    <type id="highway.unclassified" priority="4" numLanes="1" speed="13.89" disallow="tram rail_urban rail rail_electric rail_fast ship" oneway="0"/>
    <type id="highway.unsurfaced" priority="1" numLanes="1" speed="8.33" disallow="tram rail_urban rail rail_electric rail_fast ship" oneway="0"/>
    <type id="railway.highspeed" priority="21" numLanes="1" speed="69.44" allow="rail_fast" oneway="1"/>
    <type id="railway.light_rail" priority="19" numLanes="1" speed="27.78" allow="rail_urban" oneway="1"/>
    <type id="railway.preserved" priority="16" numLanes="1" speed="27.78" allow="rail" oneway="1"/>
    <type id="railway.rail" priority="20" numLanes="1" speed="44.44" allow="rail" oneway="1"/>
    <type id="railway.subway" priority="18" numLanes="1" speed="27.78" allow="rail_urban" oneway="1"/>
    <type id="railway.tram" priority="17" numLanes="1" speed="13.89" allow="tram" oneway="1"/>

    <edge id=":cluster_JuctionFrom_Shape001_1_1_St_JuctionTo_Line004_2_1_Ed_0" function="internal">
        <lane id=":cluster_JuctionFrom_Shape001_1_1_St_JuctionTo_Line004_2_1_Ed_0_0" index="0" allow="private emergency authority army vip passenger hov taxi bus coach delivery truck trailer motorcycle evehicle custom1 custom2" speed="11.66" length="31.30" shape="0.0,10.1527,0.0 0.216523,5.44931,0.0 1.54128,2.08498,0.0 3.71828,0.51679,0.0 6.86063,0.0888839,0.0 10.0,0.0,0.0"/>
    </edge>

    <edge id="edgeId_Line004_2_1_St" from="JuctionFrom_Line004_2_1_St" to="cluster_JuctionFrom_Shape001_1_1_St_JuctionTo_Line004_2_1_Ed" priority="14" type="highway.motorway" spreadType="center" shape="-6.93,62.30 -6.93,17.97">
        <lane id="edgeId_Line004_2_1_St_0" index="0" allow="private emergency authority army vip passenger hov taxi bus coach delivery truck trailer motorcycle evehicle custom1 custom2" speed="18.06" length="44.33" shape="-6.93,62.30 -6.93,17.97"/>
    </edge>
    <edge id="edgeId_Shape001_1_1_St" from="cluster_JuctionFrom_Shape001_1_1_St_JuctionTo_Line004_2_1_Ed" to="JuctionTo_Shape001_1_1_Ed" priority="14" type="highway.motorway" spreadType="center" shape="13.87,0.00 84.35,0.00">
        <lane id="edgeId_Shape001_1_1_St_0" index="0" allow="private emergency authority army vip passenger hov taxi bus coach delivery truck trailer motorcycle evehicle custom1 custom2" speed="18.06" length="70.48" shape="13.87,0.00 84.35,0.00"/>
    </edge>

    <tlLogic id="cluster_JuctionFrom_Shape001_1_1_St_JuctionTo_Line004_2_1_Ed" type="static" programID="0" offset="0">
        <phase duration="81" state="G"/>
        <phase duration="4"  state="y"/>
        <phase duration="5"  state="r"/>
    </tlLogic>

    <junction id="JuctionFrom_Line004_2_1_St" type="dead_end" x="-6.93" y="62.30" incLanes="" intLanes="" shape="-5.33,62.30 -8.53,62.30"/>
    <junction id="JuctionTo_Shape001_1_1_Ed" type="dead_end" x="84.35" y="0.00" incLanes="edgeId_Shape001_1_1_St_0" intLanes="" shape="84.35,-1.60 84.35,1.60"/>
    <junction id="cluster_JuctionFrom_Shape001_1_1_St_JuctionTo_Line004_2_1_Ed" type="traffic_light" x="3.47" y="8.98" incLanes="edgeId_Line004_2_1_St_0" intLanes=":cluster_JuctionFrom_Shape001_1_1_St_JuctionTo_Line004_2_1_Ed_0_0" shape="-8.53,17.97 -5.33,17.97 -4.80,12.97 -3.20,8.88 -0.53,5.69 3.20,3.42 8.00,2.05 13.87,1.60 13.87,-1.60 7.03,-1.06 1.43,0.57 -2.93,3.29 -6.04,7.10 -7.91,11.99">
        <request index="0" response="0" foes="0" cont="0"/>
    </junction>

    <connection from="edgeId_Line004_2_1_St" to="edgeId_Shape001_1_1_St" fromLane="0" toLane="0" via=":cluster_JuctionFrom_Shape001_1_1_St_JuctionTo_Line004_2_1_Ed_0_0" tl="cluster_JuctionFrom_Shape001_1_1_St_JuctionTo_Line004_2_1_Ed" linkIndex="0" dir="l" state="O"/>

    <connection from=":cluster_JuctionFrom_Shape001_1_1_St_JuctionTo_Line004_2_1_Ed_0" to="edgeId_Shape001_1_1_St" fromLane="0" toLane="0" dir="l" state="M"/>

</net>
