<?xml version="1.0" encoding="UTF-8"?>

<!-- generated on 2022-06-15 11:06:28 by Eclipse SUMO netedit Version 1.13.0
-->

<routes xmlns:xsi="http://www.w3.org/2001/XMLSchema-instance" xsi:noNamespaceSchemaLocation="http://sumo.dlr.de/xsd/routes_file.xsd">
    <!-- Vehicles, persons and containers (sorted by depart) -->
    <trip id="t_0" depart="0.00" from="edgeId_Line004_2_1_St" to="edgeId_Shape001_1_1_St"/>
</routes>
