<?xml version="1.0" encoding="UTF-8"?>
<routes xmlns:xsi="http://www.w3.org/2001/XMLSchema-instance" xsi:noNamespaceSchemaLocation="http://sumo.dlr.de/xsd/routes_file.xsd">
	<trip id="0" depart="0.00" from="edgeId_Shape001_1_1_St" to="edgeId_Shape001_1_1_St"/>
	<trip id="1" depart="1.00" from="edgeId_Line004_2_1_St" to="edgeId_Line004_2_1_St"/>
</routes>