<?xml version="1.0" encoding="UTF-8"?>

<!-- generated on 2022-07-02 10:01:36 by Eclipse SUMO netedit Version 1.10.0
<configuration xmlns:xsi="http://www.w3.org/2001/XMLSchema-instance" xsi:noNamespaceSchemaLocation="http://sumo.dlr.de/xsd/netconvertConfiguration.xsd">

    <input>
        <sumo-net-file value="C:\Users\M.Ayaz\Downloads\SplineXMLForSUMOTrafficLanes.net%20(1).xml"/>
    </input>

    <output>
        <output-file value="C:\Users\M.Ayaz\Downloads\SplineXMLForSUMOTrafficLanes.net%20(1).xml"/>
    </output>

    <processing>
        <geometry.min-radius.fix.railways value="false"/>
        <geometry.max-grade.fix value="false"/>
        <offset.disable-normalization value="true"/>
        <lefthand value="false"/>
    </processing>

    <junctions>
        <no-internal-links value="false"/>
        <no-turnarounds value="true"/>
        <junctions.corner-detail value="5"/>
        <junctions.limit-turn-speed value="5.5"/>
        <rectangular-lane-cut value="false"/>
    </junctions>

    <pedestrian>
        <walkingareas value="false"/>
    </pedestrian>

    <report>
        <aggregate-warnings value="5"/>
    </report>

</configuration>
-->

<net version="1.9" junctionCornerDetail="5" limitTurnSpeed="5.50" xmlns:xsi="http://www.w3.org/2001/XMLSchema-instance" xsi:noNamespaceSchemaLocation="http://sumo.dlr.de/xsd/net_file.xsd">

    <location netOffset="0.00,0.00" convBoundary="3405.51,-9.57,3520.01,157.06" origBoundary="3405.51,-9.57,3520.01,157.06" projParameter="!"/>

    <edge id=":JuctionTo_Shape091_5_1_Ed-JuctionFrom_Shape377_6_1_St_0" function="internal">
        <lane id=":JuctionTo_Shape091_5_1_Ed-JuctionFrom_Shape377_6_1_St_0_0" index="0" allow="private emergency authority army vip passenger hov taxi bus coach delivery truck trailer motorcycle evehicle custom1 custom2" speed="18.06" length="0.79" shape="3472.25,114.87,-23.42 3472.02,114.88,-23.42 3471.86,114.90,-23.42 3471.71,114.96,-23.42 3471.50,115.07,-23.42"/>
    </edge>
    <edge id=":JuctionTo_Shape092_9_1_Ed-JuctionFrom_Shape376_23_1_St_0" function="internal">
        <lane id=":JuctionTo_Shape092_9_1_Ed-JuctionFrom_Shape376_23_1_St_0_0" index="0" allow="private emergency authority army vip passenger hov taxi bus coach delivery truck trailer motorcycle evehicle custom1 custom2" speed="18.06" length="0.29" shape="3472.01,111.38,-23.42 3471.73,111.38,-23.42"/>
    </edge>
    <edge id=":JuctionTo_Shape093_7_1_Ed-JuctionFrom_Shape375_17_1_St_0" function="internal">
        <lane id=":JuctionTo_Shape093_7_1_Ed-JuctionFrom_Shape375_17_1_St_0_0" index="0" allow="private emergency authority army vip passenger hov taxi bus coach delivery truck trailer motorcycle evehicle custom1 custom2" speed="18.06" length="0.30" shape="3472.07,107.73,-23.42 3471.77,107.73,-23.42"/>
    </edge>
    <edge id=":JuctionTo_Shape094_25_1_Ed-JuctionFrom_Shape385_26_1_St_0" function="internal">
        <lane id=":JuctionTo_Shape094_25_1_Ed-JuctionFrom_Shape385_26_1_St_0_0" index="0" allow="private emergency authority army vip passenger hov taxi bus coach delivery truck trailer motorcycle evehicle custom1 custom2" speed="18.06" length="0.30" shape="3446.13,123.20,-23.42 3446.13,122.90,-23.42"/>
    </edge>
    <edge id=":JuctionTo_Shape095_10_1_Ed-JuctionFrom_Shape374_11_1_St_0" function="internal">
        <lane id=":JuctionTo_Shape095_10_1_Ed-JuctionFrom_Shape374_11_1_St_0_0" index="0" allow="private emergency authority army vip passenger hov taxi bus coach delivery truck trailer motorcycle evehicle custom1 custom2" speed="18.06" length="0.30" shape="3472.17,103.67,-23.42 3471.87,103.67,-23.42"/>
    </edge>
    <edge id=":JuctionTo_Shape341_19_1_Ed-JuctionFrom_Shape386_24_1_St_0" function="internal">
        <lane id=":JuctionTo_Shape341_19_1_Ed-JuctionFrom_Shape386_24_1_St_0_0" index="0" allow="private emergency authority army vip passenger hov taxi bus coach delivery truck trailer motorcycle evehicle custom1 custom2" speed="18.06" length="0.29" shape="3442.69,123.17,-23.42 3442.69,122.89,-23.42"/>
    </edge>
    <edge id=":JuctionTo_Shape360_22_1_Ed-JuctionTo_Shape361_28_1_Ed-JuctionFrom_Shape388_29_1_St_0" function="internal">
        <lane id=":JuctionTo_Shape360_22_1_Ed-JuctionTo_Shape361_28_1_Ed-JuctionFrom_Shape388_29_1_St_0_0" index="0" allow="private emergency authority army vip passenger hov taxi bus coach delivery truck trailer motorcycle evehicle custom1 custom2" speed="18.06" length="11.54" shape="3434.98,98.01,-23.42 3434.60,86.48,-23.42"/>
    </edge>
    <edge id=":JuctionTo_Shape360_22_1_Ed-JuctionTo_Shape361_28_1_Ed-JuctionFrom_Shape388_29_1_St_1" function="internal">
        <lane id=":JuctionTo_Shape360_22_1_Ed-JuctionTo_Shape361_28_1_Ed-JuctionFrom_Shape388_29_1_St_1_0" index="0" allow="private emergency authority army vip passenger hov taxi bus coach delivery truck trailer motorcycle evehicle custom1 custom2" speed="11.65" length="11.72" shape="3439.12,96.87,-23.42 3436.97,94.42,-23.42 3435.58,92.19,-23.42 3434.83,89.70,-23.42 3434.60,86.48,-23.42"/>
    </edge>
    <edge id=":JuctionTo_Shape362_2_1_Ed-JuctionTo_Shape373_8_1_Ed-JuctionFrom_Shape387_33_1_St_0" function="internal">
        <lane id=":JuctionTo_Shape362_2_1_Ed-JuctionTo_Shape373_8_1_Ed-JuctionFrom_Shape387_33_1_St_0_0" index="0" allow="private emergency authority army vip passenger hov taxi bus coach delivery truck trailer motorcycle evehicle custom1 custom2" speed="18.06" length="8.27" shape="3437.88,94.59,-23.42 3437.65,86.32,-23.42"/>
    </edge>
    <edge id=":JuctionTo_Shape362_2_1_Ed-JuctionTo_Shape373_8_1_Ed-JuctionFrom_Shape387_33_1_St_1" function="internal">
        <lane id=":JuctionTo_Shape362_2_1_Ed-JuctionTo_Shape373_8_1_Ed-JuctionFrom_Shape387_33_1_St_1_0" index="0" allow="private emergency authority army vip passenger hov taxi bus coach delivery truck trailer motorcycle evehicle custom1 custom2" speed="9.08" length="8.09" shape="3441.81,93.03,-23.42 3439.99,91.20,-23.42 3438.69,89.47,-23.42 3437.91,87.85,-23.42 3437.65,86.32,-23.42"/>
    </edge>
    <edge id=":JuctionTo_Shape364_3_1_Ed-JuctionFrom_Shape373_8_1_St_0" function="internal">
        <lane id=":JuctionTo_Shape364_3_1_Ed-JuctionFrom_Shape373_8_1_St_0_0" index="0" allow="private emergency authority army vip passenger hov taxi bus coach delivery truck trailer motorcycle evehicle custom1 custom2" speed="18.06" length="0.29" shape="3472.22,99.84,-23.42 3471.92,99.84,-23.42"/>
    </edge>
    <edge id=":JuctionTo_Shape374_11_1_Ed-JuctionFrom_Shape352_15_1_St-JuctionFrom_Shape360_22_1_St_0" function="internal">
        <lane id=":JuctionTo_Shape374_11_1_Ed-JuctionFrom_Shape352_15_1_St-JuctionFrom_Shape360_22_1_St_0_0" index="0" allow="private emergency authority army vip passenger hov taxi bus coach delivery truck trailer motorcycle evehicle custom1 custom2" speed="18.06" length="19.14" shape="3461.19,103.75,-23.42 3442.05,103.90,-23.42"/>
    </edge>
    <edge id=":JuctionTo_Shape374_11_1_Ed-JuctionFrom_Shape352_15_1_St-JuctionFrom_Shape360_22_1_St_1" function="internal">
        <lane id=":JuctionTo_Shape374_11_1_Ed-JuctionFrom_Shape352_15_1_St-JuctionFrom_Shape360_22_1_St_1_0" index="0" allow="private emergency authority army vip passenger hov taxi bus coach delivery truck trailer motorcycle evehicle custom1 custom2" speed="18.06" length="19.39" shape="3461.19,103.75,-23.42 3456.73,103.50,-23.42 3451.50,102.73,-23.42 3446.41,101.45,-23.42 3442.40,99.67,-23.42"/>
    </edge>
    <edge id=":JuctionTo_Shape377_6_1_Ed-JuctionTo_Shape371_18_1_Ed-JuctionFrom_Shape372_21_1_St_0" function="internal">
        <lane id=":JuctionTo_Shape377_6_1_Ed-JuctionTo_Shape371_18_1_Ed-JuctionFrom_Shape372_21_1_St_0_0" index="0" allow="private emergency authority army vip passenger hov taxi bus coach delivery truck trailer motorcycle evehicle custom1 custom2" speed="8.79" length="10.55" shape="3465.44,118.43,-23.42 3463.58,119.88,-23.42 3462.25,121.88,-23.42 3461.44,124.43,-23.42 3461.16,127.53,-23.42"/>
    </edge>
    <edge id=":JuctionTo_Shape377_6_1_Ed-JuctionTo_Shape371_18_1_Ed-JuctionFrom_Shape372_21_1_St_1" function="internal">
        <lane id=":JuctionTo_Shape377_6_1_Ed-JuctionTo_Shape371_18_1_Ed-JuctionFrom_Shape372_21_1_St_1_0" index="0" allow="private emergency authority army vip passenger hov taxi bus coach delivery truck trailer motorcycle evehicle custom1 custom2" speed="18.06" length="10.18" shape="3461.47,117.36,-23.42 3461.16,127.53,-23.42"/>
    </edge>
    <edge id=":JuctionTo_Shape389_1_1_Ed-JuctionFrom_Shape362_2_1_St_0" function="internal">
        <lane id=":JuctionTo_Shape389_1_1_Ed-JuctionFrom_Shape362_2_1_St_0_0" index="0" allow="private emergency authority army vip passenger hov taxi bus coach delivery truck trailer motorcycle evehicle custom1 custom2" speed="18.06" length="0.25" shape="3439.21,123.08,-23.42 3439.21,122.83,-23.42"/>
    </edge>
    <edge id=":JuctionTo_Shape390_13_1_Ed-JuctionFrom_Shape361_28_1_St_0" function="internal">
        <lane id=":JuctionTo_Shape390_13_1_Ed-JuctionFrom_Shape361_28_1_St_0_0" index="0" allow="private emergency authority army vip passenger hov taxi bus coach delivery truck trailer motorcycle evehicle custom1 custom2" speed="18.06" length="0.24" shape="3435.62,123.05,-23.42 3435.62,122.81,-23.42"/>
    </edge>
    <edge id=":JuctionTo_Shape391_30_1_Ed-JuctionFrom_Shape357_32_1_St_0" function="internal">
        <lane id=":JuctionTo_Shape391_30_1_Ed-JuctionFrom_Shape357_32_1_St_0_0" index="0" allow="private emergency authority army vip passenger hov taxi bus coach delivery truck trailer motorcycle evehicle custom1 custom2" speed="18.06" length="0.50" shape="3431.35,123.17,-23.42 3431.34,123.03,-23.42 3431.33,122.92,-23.42 3431.30,122.83,-23.42 3431.25,122.69,-23.42"/>
    </edge>
    <edge id=":JuctionTo_Shape392_14_1_Ed-JuctionFrom_Shape371_18_1_St_0" function="internal">
        <lane id=":JuctionTo_Shape392_14_1_Ed-JuctionFrom_Shape371_18_1_St_0_0" index="0" allow="private emergency authority army vip passenger hov taxi bus coach delivery truck trailer motorcycle evehicle custom1 custom2" speed="18.06" length="0.30" shape="3462.44,88.77,-23.42 3462.44,89.06,-23.42"/>
    </edge>
    <edge id=":JuctionTo_Shape393_12_1_Ed-JuctionFrom_Shape337_27_1_St_0" function="internal">
        <lane id=":JuctionTo_Shape393_12_1_Ed-JuctionFrom_Shape337_27_1_St_0_0" index="0" allow="private emergency authority army vip passenger hov taxi bus coach delivery truck trailer motorcycle evehicle custom1 custom2" speed="18.06" length="0.30" shape="3459.25,88.80,-23.42 3459.25,89.09,-23.42"/>
    </edge>
    <edge id=":JuctionTo_Shape394_16_1_Ed-JuctionFrom_Shape356_20_1_St_0" function="internal">
        <lane id=":JuctionTo_Shape394_16_1_Ed-JuctionFrom_Shape356_20_1_St_0_0" index="0" allow="private emergency authority army vip passenger hov taxi bus coach delivery truck trailer motorcycle evehicle custom1 custom2" speed="18.06" length="0.10" shape="3455.07,88.88,-23.42 3455.07,88.88,-23.42"/>
    </edge>
    <edge id=":JuctionTo_Shape395_4_1_Ed-JuctionFrom_Shape355_31_1_St_0" function="internal">
        <lane id=":JuctionTo_Shape395_4_1_Ed-JuctionFrom_Shape355_31_1_St_0_0" index="0" allow="private emergency authority army vip passenger hov taxi bus coach delivery truck trailer motorcycle evehicle custom1 custom2" speed="18.06" length="0.41" shape="3451.42,88.75,-23.42 3451.42,88.88,-23.42 3451.41,88.96,-23.42 3451.40,89.04,-23.42 3451.36,89.16,-23.42"/>
    </edge>

    <edge id="edgeId_Shape091_5_1_St" from="JuctionFrom_Shape091_5_1_St" to="JuctionTo_Shape091_5_1_Ed-JuctionFrom_Shape377_6_1_St" priority="14" type="highway.motorway" spreadType="center" shape="3519.22,114.59,-23.70 3514.22,114.61,-23.65 3509.22,114.64,-23.61 3504.22,114.65,-23.56 3499.22,114.64,-23.51 3494.22,114.62,-23.47 3489.22,114.64,-23.43 3484.22,114.69,-23.42 3471.85,114.88,-23.42">
        <lane id="edgeId_Shape091_5_1_St_0" index="0" allow="private emergency authority army vip passenger hov taxi bus coach delivery truck trailer motorcycle evehicle custom1 custom2" speed="18.06" length="46.97" shape="3519.22,114.59,-23.70 3514.22,114.61,-23.65 3509.22,114.64,-23.61 3504.22,114.65,-23.56 3499.22,114.64,-23.51 3494.22,114.62,-23.47 3489.22,114.64,-23.43 3484.22,114.69,-23.42 3472.25,114.87,-23.42"/>
    </edge>
    <edge id="edgeId_Shape092_9_1_St" from="JuctionFrom_Shape092_9_1_St" to="JuctionTo_Shape092_9_1_Ed-JuctionFrom_Shape376_23_1_St" priority="14" type="highway.motorway" spreadType="center" shape="3519.24,110.69,-23.72 3514.24,110.77,-23.67 3509.24,110.84,-23.63 3504.24,110.92,-23.55 3499.24,111.00,-23.51 3494.24,111.07,-23.46 3489.24,111.15,-23.43 3484.24,111.23,-23.42 3479.24,111.30,-23.42 3471.87,111.38,-23.42">
        <lane id="edgeId_Shape092_9_1_St_0" index="0" allow="private emergency authority army vip passenger hov taxi bus coach delivery truck trailer motorcycle evehicle custom1 custom2" speed="18.06" length="47.23" shape="3519.24,110.69,-23.72 3514.24,110.77,-23.67 3509.24,110.84,-23.63 3504.24,110.92,-23.55 3499.24,111.00,-23.51 3494.24,111.07,-23.46 3489.24,111.15,-23.43 3484.24,111.23,-23.42 3479.24,111.30,-23.42 3472.01,111.38,-23.42"/>
    </edge>
    <edge id="edgeId_Shape093_7_1_St" from="JuctionFrom_Shape093_7_1_St" to="JuctionTo_Shape093_7_1_Ed-JuctionFrom_Shape375_17_1_St" priority="14" type="highway.motorway" spreadType="center" shape="3519.24,107.22,-23.74 3514.24,107.30,-23.69 3509.24,107.39,-23.65 3504.24,107.48,-23.55 3499.24,107.57,-23.50 3494.24,107.65,-23.46 3489.24,107.72,-23.43 3484.24,107.72,-23.42 3479.25,107.72,-23.42 3471.92,107.73,-23.42">
        <lane id="edgeId_Shape093_7_1_St_0" index="0" allow="private emergency authority army vip passenger hov taxi bus coach delivery truck trailer motorcycle evehicle custom1 custom2" speed="18.06" length="47.18" shape="3519.24,107.22,-23.74 3514.24,107.30,-23.69 3509.24,107.39,-23.65 3504.24,107.48,-23.55 3499.24,107.57,-23.50 3494.24,107.65,-23.46 3489.24,107.72,-23.43 3484.24,107.72,-23.42 3479.25,107.72,-23.42 3472.07,107.73,-23.42"/>
    </edge>
    <edge id="edgeId_Shape094_25_1_St" from="JuctionFrom_Shape094_25_1_St" to="JuctionTo_Shape094_25_1_Ed-JuctionFrom_Shape385_26_1_St" priority="14" type="highway.motorway" spreadType="center" shape="3446.90,156.72,-23.42 3446.75,152.70,-23.42 3446.59,147.71,-23.42 3446.50,142.71,-23.42 3446.45,137.71,-23.42 3446.36,132.71,-23.42 3446.25,127.71,-23.42 3446.13,123.05,-23.42">
        <lane id="edgeId_Shape094_25_1_St_0" index="0" allow="private emergency authority army vip passenger hov taxi bus coach delivery truck trailer motorcycle evehicle custom1 custom2" speed="18.06" length="33.53" shape="3446.90,156.72,-23.42 3446.75,152.70,-23.42 3446.59,147.71,-23.42 3446.50,142.71,-23.42 3446.45,137.71,-23.42 3446.36,132.71,-23.42 3446.25,127.71,-23.42 3446.13,123.20,-23.42"/>
    </edge>
    <edge id="edgeId_Shape095_10_1_St" from="JuctionFrom_Shape095_10_1_St" to="JuctionTo_Shape095_10_1_Ed-JuctionFrom_Shape374_11_1_St" priority="14" type="highway.motorway" spreadType="center" shape="3520.01,103.29,-23.77 3515.01,103.34,-23.72 3510.01,103.39,-23.67 3505.01,103.43,-23.59 3500.01,103.48,-23.51 3495.01,103.52,-23.47 3490.01,103.57,-23.44 3485.01,103.61,-23.42 3480.01,103.64,-23.42 3472.02,103.67,-23.42">
        <lane id="edgeId_Shape095_10_1_St_0" index="0" allow="private emergency authority army vip passenger hov taxi bus coach delivery truck trailer motorcycle evehicle custom1 custom2" speed="18.06" length="47.84" shape="3520.01,103.29,-23.77 3515.01,103.34,-23.72 3510.01,103.39,-23.67 3505.01,103.43,-23.59 3500.01,103.48,-23.51 3495.01,103.52,-23.47 3490.01,103.57,-23.44 3485.01,103.61,-23.42 3480.01,103.64,-23.42 3472.17,103.67,-23.42"/>
    </edge>
    <edge id="edgeId_Shape337_27_1_St" from="JuctionTo_Shape393_12_1_Ed-JuctionFrom_Shape337_27_1_St" to="JuctionTo_Shape337_27_1_Ed" priority="14" type="highway.motorway" spreadType="center" shape="3459.25,88.95,-23.42 3459.16,95.58,-23.42 3459.07,100.58,-23.42 3458.98,105.58,-23.42 3458.89,110.58,-23.42 3458.80,115.58,-23.42 3458.71,120.58,-23.42 3458.61,125.58,-23.42 3458.52,130.58,-23.42 3458.43,135.58,-23.42 3458.34,140.58,-23.42 3458.25,145.57,-23.42 3458.15,150.57,-23.42 3458.04,156.40,-23.42">
        <lane id="edgeId_Shape337_27_1_St_0" index="0" allow="private emergency authority army vip passenger hov taxi bus coach delivery truck trailer motorcycle evehicle custom1 custom2" speed="18.06" length="67.32" shape="3459.25,89.09,-23.42 3459.16,95.58,-23.42 3459.07,100.58,-23.42 3458.98,105.58,-23.42 3458.89,110.58,-23.42 3458.80,115.58,-23.42 3458.71,120.58,-23.42 3458.61,125.58,-23.42 3458.52,130.58,-23.42 3458.43,135.58,-23.42 3458.34,140.58,-23.42 3458.25,145.57,-23.42 3458.15,150.57,-23.42 3458.04,156.40,-23.42"/>
    </edge>
    <edge id="edgeId_Shape341_19_1_St" from="JuctionFrom_Shape341_19_1_St" to="JuctionTo_Shape341_19_1_Ed-JuctionFrom_Shape386_24_1_St" priority="14" type="highway.motorway" spreadType="center" shape="3443.13,153.82,-23.42 3443.08,148.82,-23.42 3443.02,143.82,-23.42 3442.94,138.83,-23.42 3442.87,133.83,-23.42 3442.79,128.83,-23.42 3442.69,123.03,-23.42">
        <lane id="edgeId_Shape341_19_1_St_0" index="0" allow="private emergency authority army vip passenger hov taxi bus coach delivery truck trailer motorcycle evehicle custom1 custom2" speed="18.06" length="30.65" shape="3443.13,153.82,-23.42 3443.08,148.82,-23.42 3443.02,143.82,-23.42 3442.94,138.83,-23.42 3442.87,133.83,-23.42 3442.79,128.83,-23.42 3442.69,123.17,-23.42"/>
    </edge>
    <edge id="edgeId_Shape352_15_1_St" from="JuctionTo_Shape374_11_1_Ed-JuctionFrom_Shape352_15_1_St-JuctionFrom_Shape360_22_1_St" to="JuctionTo_Shape352_15_1_Ed" priority="14" type="highway.motorway" spreadType="center" shape="3459.66,103.76,-23.42 3454.66,103.81,-23.42 3449.66,103.85,-23.42 3444.66,103.89,-23.42 3439.66,103.92,-23.42 3434.66,103.94,-23.42 3429.66,103.96,-23.42 3424.66,103.97,-23.42 3419.66,103.98,-23.42 3414.66,103.98,-23.43 3409.66,103.97,-23.47 3405.51,103.95,-23.50">
        <lane id="edgeId_Shape352_15_1_St_0" index="0" allow="private emergency authority army vip passenger hov taxi bus coach delivery truck trailer motorcycle evehicle custom1 custom2" speed="18.06" length="36.54" shape="3442.05,103.90,-23.42 3439.66,103.92,-23.42 3434.66,103.94,-23.42 3429.66,103.96,-23.42 3424.66,103.97,-23.42 3419.66,103.98,-23.42 3414.66,103.98,-23.43 3409.66,103.97,-23.47 3405.51,103.95,-23.50"/>
    </edge>
    <edge id="edgeId_Shape355_31_1_St" from="JuctionTo_Shape395_4_1_Ed-JuctionFrom_Shape355_31_1_St" to="JuctionTo_Shape375_17_1_Ed-JuctionTo_Shape355_31_1_Ed" priority="14" type="highway.motorway" spreadType="center" shape="3451.42,88.96,-23.42 3449.51,95.81,-23.42 3446.44,99.74,-23.42 3442.52,102.82,-23.42 3438.06,105.06,-23.42 3433.25,106.40,-23.42 3428.27,106.80,-23.42 3423.28,107.06,-23.42 3418.28,107.36,-23.42 3413.45,107.66,-23.44">
        <lane id="edgeId_Shape355_31_1_St_0" index="0" allow="private emergency authority army vip passenger hov taxi bus coach delivery truck trailer motorcycle evehicle custom1 custom2" speed="18.06" length="18.83" shape="3451.36,89.16,-23.42 3449.51,95.81,-23.42 3446.44,99.74,-23.42 3442.52,102.82,-23.42 3440.77,103.70,-23.42"/>
    </edge>
    <edge id="edgeId_Shape356_20_1_St" from="JuctionTo_Shape394_16_1_Ed-JuctionFrom_Shape356_20_1_St" to="JuctionTo_Shape356_20_1_Ed-JuctionTo_Shape376_23_1_Ed-JuctionTo_Shape357_32_1_Ed" priority="14" type="highway.motorway" spreadType="center" shape="3455.07,88.88,-23.42 3454.21,95.95,-23.42 3451.95,100.40,-23.42 3448.71,104.18,-23.42 3444.52,106.90,-23.42 3439.84,108.63,-23.42 3434.95,109.65,-23.42 3429.99,110.29,-23.42 3425.00,110.58,-23.42 3420.01,110.75,-23.42 3413.54,110.75,-23.44">
        <lane id="edgeId_Shape356_20_1_St_0" index="0" allow="private emergency authority army vip passenger hov taxi bus coach delivery truck trailer motorcycle evehicle custom1 custom2" speed="18.06" length="39.56" shape="3455.07,88.88,-23.42 3454.21,95.95,-23.42 3451.95,100.40,-23.42 3448.71,104.18,-23.42 3444.52,106.90,-23.42 3439.84,108.63,-23.42 3434.95,109.65,-23.42 3429.99,110.29,-23.42 3427.51,110.43,-23.42"/>
    </edge>
    <edge id="edgeId_Shape357_32_1_St" from="JuctionTo_Shape391_30_1_Ed-JuctionFrom_Shape357_32_1_St" to="JuctionTo_Shape356_20_1_Ed-JuctionTo_Shape376_23_1_Ed-JuctionTo_Shape357_32_1_Ed" priority="14" type="highway.motorway" spreadType="center" shape="3431.34,122.92,-23.42 3429.01,116.83,-23.42 3425.25,113.56,-23.42 3420.51,111.97,-23.42 3415.60,111.01,-23.43 3413.54,110.75,-23.44">
        <lane id="edgeId_Shape357_32_1_St_0" index="0" allow="private emergency authority army vip passenger hov taxi bus coach delivery truck trailer motorcycle evehicle custom1 custom2" speed="18.06" length="9.17" shape="3431.25,122.69,-23.42 3429.01,116.83,-23.42 3426.82,114.93,-23.42"/>
    </edge>
    <edge id="edgeId_Shape360_22_1_St" from="JuctionTo_Shape374_11_1_Ed-JuctionFrom_Shape352_15_1_St-JuctionFrom_Shape360_22_1_St" to="JuctionTo_Shape360_22_1_Ed-JuctionTo_Shape361_28_1_Ed-JuctionFrom_Shape388_29_1_St" priority="14" type="highway.motorway" spreadType="center" shape="3459.66,103.76,-23.42 3454.66,103.63,-23.42 3449.71,102.97,-23.42 3445.00,101.33,-23.42 3440.79,98.64,-23.42 3437.37,95.02,-23.42 3434.61,88.29,-23.42">
        <lane id="edgeId_Shape360_22_1_St_0" index="0" allow="private emergency authority army vip passenger hov taxi bus coach delivery truck trailer motorcycle evehicle custom1 custom2" speed="18.06" length="4.34" shape="3442.40,99.67,-23.42 3440.79,98.64,-23.42 3439.12,96.87,-23.42"/>
    </edge>
    <edge id="edgeId_Shape361_28_1_St" from="JuctionTo_Shape390_13_1_Ed-JuctionFrom_Shape361_28_1_St" to="JuctionTo_Shape360_22_1_Ed-JuctionTo_Shape361_28_1_Ed-JuctionFrom_Shape388_29_1_St" priority="14" type="highway.motorway" spreadType="center" shape="3435.62,122.93,-23.42 3435.66,116.01,-23.42 3435.47,111.01,-23.42 3435.28,106.01,-23.42 3435.09,101.02,-23.42 3434.90,96.02,-23.42 3434.61,88.29,-23.42">
        <lane id="edgeId_Shape361_28_1_St_0" index="0" allow="private emergency authority army vip passenger hov taxi bus coach delivery truck trailer motorcycle evehicle custom1 custom2" speed="18.06" length="24.81" shape="3435.62,122.81,-23.42 3435.66,116.01,-23.42 3435.47,111.01,-23.42 3435.28,106.01,-23.42 3435.09,101.02,-23.42 3434.98,98.01,-23.42"/>
    </edge>
    <edge id="edgeId_Shape362_2_1_St" from="JuctionTo_Shape389_1_1_Ed-JuctionFrom_Shape362_2_1_St" to="JuctionTo_Shape362_2_1_Ed-JuctionTo_Shape373_8_1_Ed-JuctionFrom_Shape387_33_1_St" priority="14" type="highway.motorway" spreadType="center" shape="3439.21,122.95,-23.42 3439.07,119.31,-23.42 3438.83,114.32,-23.42 3438.55,109.33,-23.42 3438.29,104.34,-23.42 3438.07,99.34,-23.42 3437.87,94.34,-23.42 3437.65,88.38,-23.42">
        <lane id="edgeId_Shape362_2_1_St_0" index="0" allow="private emergency authority army vip passenger hov taxi bus coach delivery truck trailer motorcycle evehicle custom1 custom2" speed="18.06" length="28.27" shape="3439.21,122.83,-23.42 3439.07,119.31,-23.42 3438.83,114.32,-23.42 3438.55,109.33,-23.42 3438.29,104.34,-23.42 3438.07,99.34,-23.42 3437.88,94.59,-23.42"/>
    </edge>
    <edge id="edgeId_Shape364_3_1_St" from="JuctionFrom_Shape364_3_1_St" to="JuctionTo_Shape364_3_1_Ed-JuctionFrom_Shape373_8_1_St" priority="14" type="highway.motorway" spreadType="center" shape="3517.79,97.96,-23.78 3512.83,98.59,-23.72 3507.86,99.09,-23.66 3502.87,99.45,-23.53 3497.88,99.69,-23.49 3492.88,99.85,-23.45 3487.88,99.92,-23.42 3482.88,99.89,-23.42 3477.88,99.84,-23.42 3472.07,99.84,-23.42">
        <lane id="edgeId_Shape364_3_1_St_0" index="0" allow="private emergency authority army vip passenger hov taxi bus coach delivery truck trailer motorcycle evehicle custom1 custom2" speed="18.06" length="45.66" shape="3517.79,97.96,-23.78 3512.83,98.59,-23.72 3507.86,99.09,-23.66 3502.87,99.45,-23.53 3497.88,99.69,-23.49 3492.88,99.85,-23.45 3487.88,99.92,-23.42 3482.88,99.89,-23.42 3477.88,99.84,-23.42 3472.22,99.84,-23.42"/>
    </edge>
    <edge id="edgeId_Shape371_18_1_St" from="JuctionTo_Shape392_14_1_Ed-JuctionFrom_Shape371_18_1_St" to="JuctionTo_Shape377_6_1_Ed-JuctionTo_Shape371_18_1_Ed-JuctionFrom_Shape372_21_1_St" priority="14" type="highway.motorway" spreadType="center" shape="3462.44,88.92,-23.42 3462.26,95.55,-23.42 3462.08,100.55,-23.42 3461.90,105.55,-23.42 3461.72,110.54,-23.42 3461.54,115.54,-23.42 3461.36,120.53,-23.42 3461.17,125.72,-23.42">
        <lane id="edgeId_Shape371_18_1_St_0" index="0" allow="private emergency authority army vip passenger hov taxi bus coach delivery truck trailer motorcycle evehicle custom1 custom2" speed="18.06" length="28.31" shape="3462.44,89.06,-23.42 3462.26,95.55,-23.42 3462.08,100.55,-23.42 3461.90,105.55,-23.42 3461.72,110.54,-23.42 3461.54,115.54,-23.42 3461.47,117.36,-23.42"/>
    </edge>
    <edge id="edgeId_Shape372_21_1_St" from="JuctionTo_Shape377_6_1_Ed-JuctionTo_Shape371_18_1_Ed-JuctionFrom_Shape372_21_1_St" to="JuctionTo_Shape372_21_1_Ed" priority="14" type="highway.motorway" spreadType="center" shape="3461.17,125.72,-23.42 3461.14,130.72,-23.42 3461.11,135.72,-23.42 3461.09,140.72,-23.42 3461.06,145.72,-23.42 3461.03,150.72,-23.42 3461.01,155.72,-23.42 3461.00,157.06,-23.42">
        <lane id="edgeId_Shape372_21_1_St_0" index="0" allow="private emergency authority army vip passenger hov taxi bus coach delivery truck trailer motorcycle evehicle custom1 custom2" speed="18.06" length="29.54" shape="3461.16,127.53,-23.42 3461.14,130.72,-23.42 3461.11,135.72,-23.42 3461.09,140.72,-23.42 3461.06,145.72,-23.42 3461.03,150.72,-23.42 3461.01,155.72,-23.42 3461.00,157.06,-23.42"/>
    </edge>
    <edge id="edgeId_Shape373_8_1_St" from="JuctionTo_Shape364_3_1_Ed-JuctionFrom_Shape373_8_1_St" to="JuctionTo_Shape362_2_1_Ed-JuctionTo_Shape373_8_1_Ed-JuctionFrom_Shape387_33_1_St" priority="14" type="highway.motorway" spreadType="center" shape="3472.07,99.84,-23.42 3467.88,99.78,-23.42 3462.88,99.69,-23.42 3457.90,99.32,-23.42 3452.95,98.60,-23.42 3448.19,97.09,-23.42 3443.76,94.80,-23.42 3440.06,91.45,-23.42 3437.65,88.38,-23.42">
        <lane id="edgeId_Shape373_8_1_St_0" index="0" allow="private emergency authority army vip passenger hov taxi bus coach delivery truck trailer motorcycle evehicle custom1 custom2" speed="18.06" length="31.65" shape="3471.92,99.84,-23.42 3467.88,99.78,-23.42 3462.88,99.69,-23.42 3457.90,99.32,-23.42 3452.95,98.60,-23.42 3448.19,97.09,-23.42 3443.76,94.80,-23.42 3441.81,93.03,-23.42"/>
    </edge>
    <edge id="edgeId_Shape374_11_1_St" from="JuctionTo_Shape095_10_1_Ed-JuctionFrom_Shape374_11_1_St" to="JuctionTo_Shape374_11_1_Ed-JuctionFrom_Shape352_15_1_St-JuctionFrom_Shape360_22_1_St" priority="14" type="highway.motorway" spreadType="center" shape="3472.02,103.67,-23.42 3465.01,103.73,-23.42 3459.66,103.76,-23.42">
        <lane id="edgeId_Shape374_11_1_St_0" index="0" allow="private emergency authority army vip passenger hov taxi bus coach delivery truck trailer motorcycle evehicle custom1 custom2" speed="18.06" length="10.69" shape="3471.87,103.67,-23.42 3465.01,103.73,-23.42 3461.19,103.75,-23.42"/>
    </edge>
    <edge id="edgeId_Shape375_17_1_St" from="JuctionTo_Shape093_7_1_Ed-JuctionFrom_Shape375_17_1_St" to="JuctionTo_Shape375_17_1_Ed-JuctionTo_Shape355_31_1_Ed" priority="14" type="highway.motorway" spreadType="center" shape="3471.92,107.73,-23.42 3464.25,107.72,-23.42 3459.25,107.71,-23.42 3454.25,107.71,-23.42 3449.25,107.70,-23.42 3444.25,107.69,-23.42 3439.25,107.69,-23.42 3434.25,107.68,-23.42 3429.25,107.68,-23.42 3424.25,107.67,-23.42 3419.25,107.66,-23.42 3413.45,107.66,-23.44">
        <lane id="edgeId_Shape375_17_1_St_0" index="0" allow="private emergency authority army vip passenger hov taxi bus coach delivery truck trailer motorcycle evehicle custom1 custom2" speed="18.06" length="30.70" shape="3471.77,107.73,-23.42 3464.25,107.72,-23.42 3459.25,107.71,-23.42 3454.25,107.71,-23.42 3449.25,107.70,-23.42 3444.25,107.69,-23.42 3441.07,107.69,-23.42"/>
    </edge>
    <edge id="edgeId_Shape376_23_1_St" from="JuctionTo_Shape092_9_1_Ed-JuctionFrom_Shape376_23_1_St" to="JuctionTo_Shape356_20_1_Ed-JuctionTo_Shape376_23_1_Ed-JuctionTo_Shape357_32_1_Ed" priority="14" type="highway.motorway" spreadType="center" shape="3471.87,111.38,-23.42 3464.24,111.33,-23.42 3459.25,111.27,-23.42 3454.25,111.22,-23.42 3449.25,111.16,-23.42 3444.25,111.10,-23.42 3439.25,111.05,-23.42 3434.25,110.99,-23.42 3429.25,110.93,-23.42 3424.25,110.87,-23.42 3419.25,110.81,-23.42 3413.54,110.75,-23.44">
        <lane id="edgeId_Shape376_23_1_St_0" index="0" allow="private emergency authority army vip passenger hov taxi bus coach delivery truck trailer motorcycle evehicle custom1 custom2" speed="18.06" length="69.17" shape="3471.73,111.38,-23.42 3464.24,111.33,-23.42 3459.25,111.27,-23.42 3454.25,111.22,-23.42 3449.25,111.16,-23.42 3444.25,111.10,-23.42 3439.25,111.05,-23.42 3434.25,110.99,-23.42 3429.25,110.93,-23.42 3424.25,110.87,-23.42 3419.25,110.81,-23.42 3402.57,110.62,-23.48"/>
    </edge>
    <edge id="edgeId_Shape377_6_1_St" from="JuctionTo_Shape091_5_1_Ed-JuctionFrom_Shape377_6_1_St" to="JuctionTo_Shape377_6_1_Ed-JuctionTo_Shape371_18_1_Ed-JuctionFrom_Shape372_21_1_St" priority="14" type="highway.motorway" spreadType="center" shape="3471.85,114.88,-23.42 3465.19,118.57,-23.42 3462.44,122.61,-23.42 3461.17,125.72,-23.42">
        <lane id="edgeId_Shape377_6_1_St_0" index="0" allow="private emergency authority army vip passenger hov taxi bus coach delivery truck trailer motorcycle evehicle custom1 custom2" speed="18.06" length="6.92" shape="3471.50,115.07,-23.42 3465.44,118.43,-23.42"/>
    </edge>