<?xml version="1.0" encoding="UTF-8"?>

<!-- generated on 2022-06-04 18:03:22 by Eclipse SUMO netedit Version 1.13.0
<configuration xmlns:xsi="http://www.w3.org/2001/XMLSchema-instance" xsi:noNamespaceSchemaLocation="http://sumo.dlr.de/xsd/netconvertConfiguration.xsd">

    <input>
        <sumo-net-file value="C:\Program%20Files%20(x86)\Eclipse\Sumo\DriveInCirlce\TrafficLight%20-%20Copy\trafficLight.net.xml"/>
    </input>

    <output>
        <output-file value="C:\Program%20Files%20(x86)\Eclipse\Sumo\DriveInCirlce\TrafficLight%20-%20Copy\trafficLight.net.xml"/>
    </output>

    <processing>
        <geometry.min-radius.fix.railways value="false"/>
        <geometry.max-grade.fix value="false"/>
        <offset.disable-normalization value="true"/>
        <lefthand value="false"/>
    </processing>

    <junctions>
        <no-turnarounds value="true"/>
        <junctions.corner-detail value="5"/>
        <junctions.limit-turn-speed value="5.5"/>
        <rectangular-lane-cut value="false"/>
    </junctions>

    <pedestrian>
        <walkingareas value="false"/>
    </pedestrian>

    <report>
        <aggregate-warnings value="5"/>
    </report>

</configuration>
-->

<net version="1.9" junctionCornerDetail="5" limitTurnSpeed="5.50" xmlns:xsi="http://www.w3.org/2001/XMLSchema-instance" xsi:noNamespaceSchemaLocation="http://sumo.dlr.de/xsd/net_file.xsd">

    <location netOffset="0.00,0.00" convBoundary="-1.43,-210.89,609.11,275.71" origBoundary="-10000000000.00,-10000000000.00,10000000000.00,10000000000.00" projParameter="!"/>

    <edge id=":J1_0" function="internal">
        <lane id=":J1_0_0" index="0" speed="13.89" length="0.78" shape="295.07,109.15 295.30,109.16 295.46,109.14 295.61,109.09 295.82,109.00"/>
    </edge>
    <edge id=":J10_0" function="internal">
        <lane id=":J10_0_0" index="0" speed="4.13" length="1.37" shape="302.23,121.58 302.22,121.23 302.29,120.90 302.42,120.59 302.63,120.31"/>
    </edge>
    <edge id=":J12_0" function="internal">
        <lane id=":J12_0_0" index="0" speed="13.89" length="0.60" shape="315.26,126.69 315.25,126.51 315.26,126.39 315.28,126.27 315.34,126.10"/>
    </edge>
    <edge id=":J14_0" function="internal">
        <lane id=":J14_0_0" index="0" speed="13.89" length="0.20" shape="328.80,126.89 328.80,126.84 328.80,126.79 328.79,126.75 328.79,126.70"/>
    </edge>
    <edge id=":J16_0" function="internal">
        <lane id=":J16_0_0" index="0" speed="13.89" length="0.99" shape="341.75,124.50 341.76,124.21 341.74,124.01 341.66,123.82 341.52,123.57"/>
    </edge>
    <edge id=":J3_0" function="internal">
        <lane id=":J3_0_0" index="0" speed="13.89" length="0.14" shape="293.15,97.07 293.29,97.06"/>
    </edge>
    <edge id=":J35_0" function="internal">
        <lane id=":J35_0_0" index="0" speed="4.27" length="1.20" shape="350.02,112.88 350.30,113.09 350.52,113.20 350.76,113.24 351.11,113.23"/>
    </edge>
    <edge id=":J37_0" function="internal">
        <lane id=":J37_0_0" index="0" speed="13.89" length="0.44" shape="353.79,101.24 353.91,101.27 354.00,101.29 354.09,101.29 354.22,101.29"/>
    </edge>
    <edge id=":J39_0" function="internal">
        <lane id=":J39_0_0" index="0" speed="13.89" length="0.36" shape="352.65,88.82 352.76,88.79 352.83,88.78 352.90,88.78 353.01,88.78"/>
    </edge>
    <edge id=":J41_0" function="internal">
        <lane id=":J41_0_0" index="0" speed="4.38" length="1.07" shape="351.02,76.94 351.28,76.77 351.48,76.68 351.70,76.65 352.01,76.65"/>
    </edge>
    <edge id=":J43_0" function="internal">
        <lane id=":J43_0_0" index="0" speed="13.89" length="1.00" shape="306.58,67.11 306.43,66.86 306.35,66.67 306.32,66.47 306.33,66.17"/>
    </edge>
    <edge id=":J45_0" function="internal">
        <lane id=":J45_0_0" index="0" speed="13.89" length="0.43" shape="317.15,63.47 317.13,63.34 317.11,63.26 317.11,63.17 317.11,63.04"/>
    </edge>
    <edge id=":J47_0" function="internal">
        <lane id=":J47_0_0" index="0" speed="13.89" length="0.35" shape="331.92,62.64 331.94,62.54 331.95,62.47 331.96,62.40 331.96,62.29"/>
    </edge>
    <edge id=":J49_0" function="internal">
        <lane id=":J49_0_0" index="0" speed="13.89" length="0.95" shape="341.54,68.79 341.68,68.54 341.76,68.36 341.78,68.17 341.78,67.89"/>
    </edge>
    <edge id=":J5_0" function="internal">
        <lane id=":J5_0_0" index="0" speed="13.89" length="0.42" shape="292.78,86.10 292.90,86.10 292.99,86.10 293.07,86.12 293.19,86.15"/>
    </edge>
    <edge id=":J7_0" function="internal">
        <lane id=":J7_0_0" index="0" speed="4.44" length="1.01" shape="296.51,74.74 296.80,74.73 297.01,74.76 297.20,74.84 297.46,75.00"/>
    </edge>
    <edge id=":J8_0" function="internal">
        <lane id=":J8_0_0" index="0" speed="13.89" length="29.11" shape="326.50,107.90 324.88,102.21 321.70,94.21 318.14,86.35 315.36,81.08"/>
    </edge>
    <edge id=":J8_1" function="internal">
        <lane id=":J8_1_0" index="0" speed="13.89" length="25.05" shape="326.50,107.90 325.69,102.64 324.43,95.55 323.06,88.47 321.94,83.27"/>
    </edge>
    <edge id=":J8_2" function="internal">
        <lane id=":J8_2_0" index="0" speed="13.89" length="25.39" shape="326.50,107.90 326.30,102.54 326.54,95.22 327.09,87.91 327.80,82.59"/>
    </edge>
    <edge id=":J8_3" function="internal">
        <lane id=":J8_3_0" index="0" speed="13.89" length="24.45" shape="326.50,107.90 326.74,102.71 328.05,95.81 329.96,89.05 332.02,84.26"/>
    </edge>
    <edge id=":J8_4" function="internal">
        <lane id=":J8_4_0" index="0" speed="12.72" length="23.39" shape="326.50,107.90 326.49,101.90 328.03,96.53 331.10,91.80 335.71,87.70"/>
    </edge>
    <edge id=":J8_5" function="internal">
        <lane id=":J8_5_0" index="0" speed="10.11" length="21.67" shape="326.50,107.90 326.59,101.98 328.47,97.37 332.14,94.05 337.60,92.04"/>
    </edge>
    <edge id=":J8_6" function="internal">
        <lane id=":J8_6_0" index="0" speed="8.40" length="20.21" shape="326.50,107.90 326.60,101.99 328.60,98.25 332.51,96.70 338.33,97.33"/>
    </edge>
    <edge id=":J8_7" function="internal">
        <lane id=":J8_7_0" index="0" speed="6.21" length="13.14" shape="326.50,107.90 327.38,104.97 330.00,102.42 333.27,101.03 336.08,101.59"/>
    </edge>
    <edge id=":J8_8" function="internal">
        <lane id=":J8_8_0" index="0" speed="13.89" length="30.25" shape="331.32,106.78 315.36,81.08"/>
    </edge>
    <edge id=":J8_9" function="internal">
        <lane id=":J8_9_0" index="0" speed="13.89" length="25.35" shape="331.32,106.78 328.92,101.98 326.09,95.24 323.53,88.39 321.94,83.27"/>
    </edge>
    <edge id=":J8_10" function="internal">
        <lane id=":J8_10_0" index="0" speed="13.89" length="24.66" shape="331.32,106.78 329.53,101.88 328.21,94.91 327.56,87.83 327.80,82.59"/>
    </edge>
    <edge id=":J8_11" function="internal">
        <lane id=":J8_11_0" index="0" speed="12.69" length="23.78" shape="331.32,106.78 328.91,101.33 328.23,95.77 329.26,90.08 332.02,84.26"/>
    </edge>
    <edge id=":J8_12" function="internal">
        <lane id=":J8_12_0" index="0" speed="10.09" length="22.00" shape="331.32,106.78 329.04,101.38 329.02,96.41 331.24,91.85 335.71,87.70"/>
    </edge>
    <edge id=":J8_13" function="internal">
        <lane id=":J8_13_0" index="0" speed="7.99" length="17.75" shape="331.32,106.78 330.40,102.70 331.46,98.12 334.03,94.17 337.60,92.04"/>
    </edge>
    <edge id=":J8_14" function="internal">
        <lane id=":J8_14_0" index="0" speed="6.29" length="13.47" shape="331.32,106.78 331.02,103.75 332.64,100.43 335.34,97.92 338.33,97.33"/>
    </edge>
    <edge id=":J8_15" function="internal">
        <lane id=":J8_15_0" index="0" speed="5.17" length="10.28" shape="331.32,106.78 330.57,103.69 331.11,101.80 332.95,101.10 336.08,101.59"/>
    </edge>
    <edge id=":J8_16" function="internal">
        <lane id=":J8_16_0" index="0" speed="5.66" length="12.32" shape="311.92,84.46 315.69,86.58 317.52,86.72 317.41,84.88 315.36,81.08"/>
    </edge>
    <edge id=":J8_17" function="internal">
        <lane id=":J8_17_0" index="0" speed="6.60" length="15.12" shape="311.92,84.46 317.13,87.39 320.54,88.17 322.14,86.80 321.94,83.27"/>
    </edge>
    <edge id=":J8_18" function="internal">
        <lane id=":J8_18_0" index="0" speed="8.33" length="19.89" shape="311.92,84.46 318.03,87.69 322.71,88.46 325.97,86.76 327.80,82.59"/>
    </edge>
    <edge id=":J8_19" function="internal">
        <lane id=":J8_19_0" index="0" speed="9.90" length="22.76" shape="311.92,84.46 318.51,87.94 324.06,89.07 328.56,87.84 332.02,84.26"/>
    </edge>
    <edge id=":J8_20" function="internal">
        <lane id=":J8_20_0" index="0" speed="12.45" length="25.49" shape="311.92,84.46 318.92,88.27 325.22,90.09 330.82,89.89 335.71,87.70"/>
    </edge>
    <edge id=":J8_21" function="internal">
        <lane id=":J8_21_0" index="0" speed="13.89" length="27.42" shape="311.92,84.46 319.17,88.63 325.87,91.28 332.01,92.42 337.60,92.04"/>
    </edge>
    <edge id=":J8_22" function="internal">
        <lane id=":J8_22_0" index="0" speed="13.89" length="29.42" shape="311.92,84.46 317.13,87.45 324.87,91.46 332.75,95.18 338.33,97.33"/>
    </edge>
    <edge id=":J8_23" function="internal">
        <lane id=":J8_23_0" index="0" speed="13.89" length="29.62" shape="311.92,84.46 316.91,87.85 324.11,92.87 331.26,97.97 336.08,101.59"/>
    </edge>
    <edge id=":J8_24" function="internal">
        <lane id=":J8_24_0" index="0" speed="6.71" length="15.59" shape="313.29,91.09 317.13,91.37 318.76,89.80 318.17,86.37 315.36,81.08"/>
    </edge>
    <edge id=":J8_25" function="internal">
        <lane id=":J8_25_0" index="0" speed="7.23" length="15.54" shape="313.29,91.09 318.03,91.63 321.05,90.51 322.35,87.72 321.94,83.27"/>
    </edge>
    <edge id=":J8_26" function="internal">
        <lane id=":J8_26_0" index="0" speed="9.13" length="19.34" shape="313.29,91.09 318.75,91.67 322.99,90.45 326.00,87.42 327.80,82.59"/>
    </edge>
    <edge id=":J8_27" function="internal">
        <lane id=":J8_27_0" index="0" speed="11.08" length="21.49" shape="313.29,91.09 319.19,91.82 324.28,90.93 328.56,88.41 332.02,84.26"/>
    </edge>
    <edge id=":J8_28" function="internal">
        <lane id=":J8_28_0" index="0" speed="13.89" length="23.38" shape="313.29,91.09 319.58,92.08 325.42,91.84 330.79,90.39 335.71,87.70"/>
    </edge>
    <edge id=":J8_29" function="internal">
        <lane id=":J8_29_0" index="0" speed="13.89" length="24.42" shape="313.29,91.09 318.45,91.89 325.43,92.40 332.42,92.50 337.60,92.04"/>
    </edge>
    <edge id=":J8_30" function="internal">
        <lane id=":J8_30_0" index="0" speed="13.89" length="25.81" shape="313.29,91.09 338.33,97.33"/>
    </edge>
    <edge id=":J8_31" function="internal">
        <lane id=":J8_31_0" index="0" speed="13.89" length="25.18" shape="313.29,91.09 318.35,92.79 325.05,95.61 331.56,98.79 336.08,101.59"/>
    </edge>
    <edge id=":J8_32" function="internal">
        <lane id=":J8_32_0" index="0" speed="7.91" length="18.95" shape="312.93,95.51 317.19,94.28 319.02,91.46 318.41,87.06 315.36,81.08"/>
    </edge>
    <edge id=":J8_33" function="internal">
        <lane id=":J8_33_0" index="0" speed="8.49" length="18.03" shape="312.93,95.51 317.89,94.39 321.05,91.98 322.40,88.27 321.94,83.27"/>
    </edge>
    <edge id=":J8_34" function="internal">
        <lane id=":J8_34_0" index="0" speed="10.90" length="21.33" shape="312.93,95.51 318.51,94.33 322.85,91.78 325.95,87.87 327.80,82.59"/>
    </edge>
    <edge id=":J8_35" function="internal">
        <lane id=":J8_35_0" index="0" speed="13.82" length="23.02" shape="312.93,95.51 318.92,94.42 324.10,92.19 328.46,88.80 332.02,84.26"/>
    </edge>
    <edge id=":J8_36" function="internal">
        <lane id=":J8_36_0" index="0" speed="13.89" length="24.20" shape="312.93,95.51 318.01,94.52 324.65,92.53 331.12,90.08 335.71,87.70"/>
    </edge>
    <edge id=":J8_37" function="internal">
        <lane id=":J8_37_0" index="0" speed="13.89" length="24.92" shape="312.93,95.51 318.20,94.94 325.30,94.02 332.39,92.97 337.60,92.04"/>
    </edge>
    <edge id=":J8_38" function="internal">
        <lane id=":J8_38_0" index="0" speed="13.89" length="25.51" shape="312.93,95.51 318.32,95.45 325.68,95.81 333.02,96.47 338.33,97.33"/>
    </edge>
    <edge id=":J8_39" function="internal">
        <lane id=":J8_39_0" index="0" speed="13.89" length="24.17" shape="312.93,95.51 318.10,95.85 324.92,97.22 331.53,99.26 336.08,101.59"/>
    </edge>
    <edge id=":J8_40" function="internal">
        <lane id=":J8_40_0" index="0" speed="9.39" length="21.68" shape="314.80,99.92 318.41,97.03 319.71,92.93 318.70,87.61 315.36,81.08"/>
    </edge>
    <edge id=":J8_41" function="internal">
        <lane id=":J8_41_0" index="0" speed="10.18" length="19.83" shape="314.80,99.92 318.99,97.09 321.58,93.37 322.56,88.76 321.94,83.27"/>
    </edge>
    <edge id=":J8_42" function="internal">
        <lane id=":J8_42_0" index="0" speed="13.85" length="22.48" shape="314.80,99.92 319.53,96.96 323.28,93.09 326.03,88.30 327.80,82.59"/>
    </edge>
    <edge id=":J8_43" function="internal">
        <lane id=":J8_43_0" index="0" speed="13.89" length="23.41" shape="314.80,99.92 319.02,97.16 324.12,92.88 328.86,88.20 332.02,84.26"/>
    </edge>
    <edge id=":J8_44" function="internal">
        <lane id=":J8_44_0" index="0" speed="13.89" length="24.23" shape="314.80,99.92 319.39,97.51 325.41,94.08 331.35,90.52 335.71,87.70"/>
    </edge>
    <edge id=":J8_45" function="internal">
        <lane id=":J8_45_0" index="0" speed="13.89" length="24.15" shape="314.80,99.92 319.57,97.93 326.06,95.56 332.61,93.41 337.60,92.04"/>
    </edge>
    <edge id=":J8_46" function="internal">
        <lane id=":J8_46_0" index="0" speed="13.89" length="23.87" shape="314.80,99.92 319.69,98.43 326.44,97.35 333.24,96.91 338.33,97.33"/>
    </edge>
    <edge id=":J8_47" function="internal">
        <lane id=":J8_47_0" index="0" speed="12.05" length="22.13" shape="314.80,99.92 320.02,98.44 325.98,98.28 331.66,99.35 336.08,101.59"/>
    </edge>
    <edge id=":J8_48" function="internal">
        <lane id=":J8_48_0" index="0" speed="11.59" length="24.42" shape="317.58,103.71 320.10,99.35 320.57,94.12 318.99,88.03 315.36,81.08"/>
    </edge>
    <edge id=":J8_49" function="internal">
        <lane id=":J8_49_0" index="0" speed="13.17" length="21.77" shape="317.58,103.71 320.60,99.38 322.33,94.53 322.78,89.16 321.94,83.27"/>
    </edge>
    <edge id=":J8_50" function="internal">
        <lane id=":J8_50_0" index="0" speed="13.89" length="23.59" shape="317.58,103.71 320.44,99.53 323.56,93.59 326.25,87.43 327.80,82.59"/>
    </edge>
    <edge id=":J8_51" function="internal">
        <lane id=":J8_51_0" index="0" speed="13.89" length="24.24" shape="317.58,103.71 320.88,99.71 325.07,94.19 329.13,88.57 332.02,84.26"/>
    </edge>
    <edge id=":J8_52" function="internal">
        <lane id=":J8_52_0" index="0" speed="13.89" length="24.21" shape="317.58,103.71 321.25,100.05 326.36,95.39 331.62,90.90 335.71,87.70"/>
    </edge>
    <edge id=":J8_53" function="internal">
        <lane id=":J8_53_0" index="0" speed="13.89" length="23.34" shape="317.58,103.71 321.43,100.47 327.01,96.88 332.88,93.78 337.60,92.04"/>
    </edge>
    <edge id=":J8_54" function="internal">
        <lane id=":J8_54_0" index="0" speed="12.54" length="22.90" shape="317.58,103.71 322.08,99.76 327.03,97.38 332.45,96.56 338.33,97.33"/>
    </edge>
    <edge id=":J8_55" function="internal">
        <lane id=":J8_55_0" index="0" speed="9.59" length="20.03" shape="317.58,103.71 321.55,100.89 326.59,99.47 331.75,99.64 336.08,101.59"/>
    </edge>
    <edge id=":J8_56" function="internal">
        <lane id=":J8_56_0" index="0" speed="13.89" length="27.08" shape="321.58,106.63 322.44,101.13 321.69,95.05 319.33,88.36 315.36,81.08"/>
    </edge>
    <edge id=":J8_57" function="internal">
        <lane id=":J8_57_0" index="0" speed="13.89" length="23.48" shape="321.58,106.63 322.44,101.65 322.77,94.99 322.59,88.30 321.94,83.27"/>
    </edge>
    <edge id=":J8_58" function="internal">
        <lane id=":J8_58_0" index="0" speed="13.89" length="24.84" shape="321.58,106.63 323.05,101.55 324.88,94.66 326.62,87.74 327.80,82.59"/>
    </edge>
    <edge id=":J8_59" function="internal">
        <lane id=":J8_59_0" index="0" speed="13.89" length="24.71" shape="321.58,106.63 323.49,101.72 326.39,95.25 329.50,88.88 332.02,84.26"/>
    </edge>
    <edge id=":J8_60" function="internal">
        <lane id=":J8_60_0" index="0" speed="13.89" length="23.79" shape="321.58,106.63 323.86,102.07 327.68,96.46 331.99,91.20 335.71,87.70"/>
    </edge>
    <edge id=":J8_61" function="internal">
        <lane id=":J8_61_0" index="0" speed="12.78" length="22.76" shape="321.58,106.63 324.02,101.22 327.51,96.99 332.03,93.93 337.60,92.04"/>
    </edge>
    <edge id=":J8_62" function="internal">
        <lane id=":J8_62_0" index="0" speed="9.97" length="21.56" shape="321.58,106.63 324.13,101.35 327.77,98.04 332.51,96.70 338.33,97.33"/>
    </edge>
    <edge id=":J8_63" function="internal">
        <lane id=":J8_63_0" index="0" speed="7.76" length="17.06" shape="321.58,106.63 323.95,103.33 327.93,101.07 332.36,100.33 336.08,101.59"/>
    </edge>

    <edge id="E0" from="J0" to="J1" priority="-1">
        <lane id="E0_0" index="0" speed="13.89" length="296.36" shape="-1.09,98.36 295.07,109.15"/>
    </edge>
    <edge id="E1" from="J2" to="J3" priority="-1">
        <lane id="E1_0" index="0" speed="13.89" length="294.23" shape="-1.07,95.01 293.15,97.07"/>
    </edge>
    <edge id="E10" from="J11" to="J12" priority="-1">
        <lane id="E10_0" index="0" speed="13.89" length="149.14" shape="324.70,275.53 315.26,126.69"/>
    </edge>
    <edge id="E11" from="J12" to="J8" priority="-1">
        <lane id="E11_0" index="0" speed="13.89" length="20.45" shape="315.34,126.10 321.58,106.63"/>
    </edge>
    <edge id="E12" from="J13" to="J14" priority="-1">
        <lane id="E12_0" index="0" speed="13.89" length="148.81" shape="328.36,275.71 328.80,126.89"/>
    </edge>
    <edge id="E13" from="J14" to="J8" priority="-1">
        <lane id="E13_0" index="0" speed="13.89" length="18.94" shape="328.79,126.70 326.50,107.90"/>
    </edge>
    <edge id="E14" from="J15" to="J16" priority="-1">
        <lane id="E14_0" index="0" speed="13.89" length="150.87" shape="332.02,275.06 341.75,124.50"/>
    </edge>
    <edge id="E15" from="J16" to="J8" priority="-1">
        <lane id="E15_0" index="0" speed="13.89" length="19.65" shape="341.52,123.57 331.32,106.78"/>
    </edge>
    <edge id="E2" from="J4" to="J5" priority="-1">
        <lane id="E2_0" index="0" speed="13.89" length="293.99" shape="-1.16,91.78 292.78,86.10"/>
    </edge>
    <edge id="E3" from="J6" to="J7" priority="-1">
        <lane id="E3_0" index="0" speed="13.89" length="298.33" shape="-1.50,88.48 296.51,74.74"/>
    </edge>
    <edge id="E32" from="J35" to="J36" priority="-1">
        <lane id="E32_0" index="0" speed="13.89" length="258.03" shape="351.11,113.23 608.73,98.57"/>
    </edge>
    <edge id="E33" from="J37" to="J38" priority="-1">
        <lane id="E33_0" index="0" speed="13.89" length="254.90" shape="354.22,101.29 609.04,95.13"/>
    </edge>
    <edge id="E34" from="J39" to="J40" priority="-1">
        <lane id="E34_0" index="0" speed="13.89" length="256.14" shape="353.01,88.78 609.13,91.75"/>
    </edge>
    <edge id="E35" from="J41" to="J42" priority="-1">
        <lane id="E35_0" index="0" speed="13.89" length="257.38" shape="352.01,76.65 609.12,88.34"/>
    </edge>
    <edge id="E36" from="J8" to="J35" priority="-1">
        <lane id="E36_0" index="0" speed="13.89" length="17.93" shape="336.08,101.59 350.02,112.88"/>
    </edge>
    <edge id="E37" from="J8" to="J37" priority="-1">
        <lane id="E37_0" index="0" speed="13.89" length="15.95" shape="338.33,97.33 353.79,101.24"/>
    </edge>
    <edge id="E38" from="J8" to="J39" priority="-1">
        <lane id="E38_0" index="0" speed="13.89" length="15.39" shape="337.60,92.04 352.65,88.82"/>
    </edge>
    <edge id="E39" from="J8" to="J41" priority="-1">
        <lane id="E39_0" index="0" speed="13.89" length="18.72" shape="335.71,87.70 351.02,76.94"/>
    </edge>
    <edge id="E4" from="J1" to="J8" priority="-1">
        <lane id="E4_0" index="0" speed="13.89" length="21.03" shape="295.82,109.00 314.80,99.92"/>
    </edge>
    <edge id="E40" from="J43" to="J44" priority="-1">
        <lane id="E40_0" index="0" speed="13.89" length="277.55" shape="306.33,66.17 321.21,-210.98"/>
    </edge>
    <edge id="E41" from="J45" to="J46" priority="-1">
        <lane id="E41_0" index="0" speed="13.89" length="273.76" shape="317.11,63.04 324.95,-210.61"/>
    </edge>
    <edge id="E42" from="J47" to="J48" priority="-1">
        <lane id="E42_0" index="0" speed="13.89" length="272.28" shape="331.96,62.29 328.43,-209.97"/>
    </edge>
    <edge id="E43" from="J49" to="J50" priority="-1">
        <lane id="E43_0" index="0" speed="13.89" length="278.08" shape="341.78,67.89 331.92,-210.01"/>
    </edge>
    <edge id="E44" from="J8" to="J43" priority="-1">
        <lane id="E44_0" index="0" speed="13.89" length="16.50" shape="315.36,81.08 306.58,67.11"/>
    </edge>
    <edge id="E45" from="J8" to="J45" priority="-1">
        <lane id="E45_0" index="0" speed="13.89" length="20.37" shape="321.94,83.27 317.15,63.47"/>
    </edge>
    <edge id="E46" from="J8" to="J47" priority="-1">
        <lane id="E46_0" index="0" speed="13.89" length="20.37" shape="327.80,82.59 331.92,62.64"/>
    </edge>
    <edge id="E47" from="J8" to="J49" priority="-1">
        <lane id="E47_0" index="0" speed="13.89" length="18.17" shape="332.02,84.26 341.54,68.79"/>
    </edge>
    <edge id="E5" from="J3" to="J8" priority="-1">
        <lane id="E5_0" index="0" speed="13.89" length="19.70" shape="293.29,97.06 312.93,95.51"/>
    </edge>
    <edge id="E6" from="J5" to="J8" priority="-1">
        <lane id="E6_0" index="0" speed="13.89" length="20.69" shape="293.19,86.15 313.29,91.09"/>
    </edge>
    <edge id="E7" from="J7" to="J8" priority="-1">
        <lane id="E7_0" index="0" speed="13.89" length="17.28" shape="297.46,75.00 311.92,84.46"/>
    </edge>
    <edge id="E8" from="J9" to="J10" priority="-1">
        <lane id="E8_0" index="0" speed="13.89" length="154.67" shape="321.23,275.08 302.23,121.58"/>
    </edge>
    <edge id="E9" from="J10" to="J8" priority="-1">
        <lane id="E9_0" index="0" speed="13.89" length="22.33" shape="302.63,120.31 317.58,103.71"/>
    </edge>

    <tlLogic id="J8" type="static" programID="0" offset="0">
        <phase duration="31" state="rrrrrrrrrrrrrrrrGGGGGGGGrrrrrrrrrrrrrrrrrrrrrrrrrrrrrrrrrrrrrrrr"/>
        <phase duration="3"  state="rrrrrrrrrrrrrrrryyyyyyyyrrrrrrrrrrrrrrrrrrrrrrrrrrrrrrrrrrrrrrrr"/>
        <phase duration="31" state="GGGGGGGGrrrrrrrrrrrrrrrrrrrrrrrrrrrrrrrrrrrrrrrrrrrrrrrrrrrrrrrr"/>
        <phase duration="3"  state="yyyyyyyyrrrrrrrrrrrrrrrrrrrrrrrrrrrrrrrrrrrrrrrrrrrrrrrrrrrrrrrr"/>
        <phase duration="31" state="rrrrrrrrrrrrrrrrrrrrrrrrrrrrrrrrGGGGGGGGrrrrrrrrrrrrrrrrrrrrrrrr"/>
        <phase duration="3"  state="rrrrrrrrrrrrrrrrrrrrrrrrrrrrrrrryyyyyyyyrrrrrrrrrrrrrrrrrrrrrrrr"/>
        <phase duration="31" state="rrrrrrrrrrrrrrrrrrrrrrrrrrrrrrrrrrrrrrrrrrrrrrrrGGGGGGGGrrrrrrrr"/>
        <phase duration="3"  state="rrrrrrrrrrrrrrrrrrrrrrrrrrrrrrrrrrrrrrrrrrrrrrrryyyyyyyyrrrrrrrr"/>
        <phase duration="31" state="rrrrrrrrrrrrrrrrrrrrrrrrGGGGGGGGrrrrrrrrrrrrrrrrrrrrrrrrrrrrrrrr"/>
        <phase duration="3"  state="rrrrrrrrrrrrrrrrrrrrrrrryyyyyyyyrrrrrrrrrrrrrrrrrrrrrrrrrrrrrrrr"/>
        <phase duration="31" state="rrrrrrrrrrrrrrrrrrrrrrrrrrrrrrrrrrrrrrrrGGGGGGGGrrrrrrrrrrrrrrrr"/>
        <phase duration="3"  state="rrrrrrrrrrrrrrrrrrrrrrrrrrrrrrrrrrrrrrrryyyyyyyyrrrrrrrrrrrrrrrr"/>
        <phase duration="31" state="rrrrrrrrGGGGGGGGrrrrrrrrrrrrrrrrrrrrrrrrrrrrrrrrrrrrrrrrrrrrrrrr"/>
        <phase duration="3"  state="rrrrrrrryyyyyyyyrrrrrrrrrrrrrrrrrrrrrrrrrrrrrrrrrrrrrrrrrrrrrrrr"/>
        <phase duration="31" state="rrrrrrrrrrrrrrrrrrrrrrrrrrrrrrrrrrrrrrrrrrrrrrrrrrrrrrrrGGGGGGGG"/>
        <phase duration="3"  state="rrrrrrrrrrrrrrrrrrrrrrrrrrrrrrrrrrrrrrrrrrrrrrrrrrrrrrrryyyyyyyy"/>
    </tlLogic>

    <junction id="J0" type="dead_end" x="-1.15" y="99.96" incLanes="" intLanes="" shape="-1.15,99.96 -1.03,96.76"/>
    <junction id="J1" type="priority" x="295.80" y="110.78" incLanes="E0_0" intLanes=":J1_0_0" shape="296.51,110.44 295.13,107.55 295.01,110.75 295.59,110.76 295.79,110.73 295.99,110.67 296.21,110.58">
        <request index="0" response="0" foes="0" cont="0"/>
    </junction>
    <junction id="J10" type="priority" x="303.82" y="121.38" incLanes="E8_0" intLanes=":J10_0_0" shape="300.64,121.77 303.82,121.38 301.44,119.24 300.92,120.00 300.75,120.41 300.65,120.85 300.62,121.30">
        <request index="0" response="0" foes="0" cont="0"/>
    </junction>
    <junction id="J11" type="dead_end" x="326.30" y="275.43" incLanes="" intLanes="" shape="326.30,275.43 323.11,275.63"/>
    <junction id="J12" type="priority" x="316.86" y="126.59" incLanes="E10_0" intLanes=":J12_0_0" shape="313.67,126.79 316.86,126.59 313.81,125.61 313.69,126.04 313.66,126.19 313.65,126.35 313.65,126.54">
        <request index="0" response="0" foes="0" cont="0"/>
    </junction>
    <junction id="J13" type="dead_end" x="329.96" y="275.71" incLanes="" intLanes="" shape="329.96,275.71 326.76,275.70"/>
    <junction id="J14" type="priority" x="330.40" y="126.70" incLanes="E12_0" intLanes=":J14_0_0" shape="330.38,126.50 327.20,126.89 330.40,126.90 330.40,126.75 330.40,126.70 330.39,126.59">
        <request index="0" response="0" foes="0" cont="0"/>
    </junction>
    <junction id="J15" type="dead_end" x="333.62" y="275.16" incLanes="" intLanes="" shape="333.62,275.16 330.43,274.95"/>
    <junction id="J16" type="priority" x="343.41" y="123.60" incLanes="E14_0" intLanes=":J16_0_0" shape="342.89,122.74 340.15,124.40 343.35,124.61 343.36,123.88 343.33,123.62 343.24,123.37 343.10,123.10">
        <request index="0" response="0" foes="0" cont="0"/>
    </junction>
    <junction id="J2" type="dead_end" x="-1.08" y="96.61" incLanes="" intLanes="" shape="-1.08,96.61 -1.06,93.41"/>
    <junction id="J3" type="priority" x="293.28" y="98.67" incLanes="E1_0" intLanes=":J3_0_0" shape="293.42,98.66 293.16,95.47 293.14,98.67">
        <request index="0" response="0" foes="0" cont="0"/>
    </junction>
    <junction id="J35" type="priority" x="349.97" y="114.90" incLanes="E36_0" intLanes=":J35_0_0" shape="351.20,114.83 351.02,111.63 349.01,114.12 349.72,114.64 350.01,114.77 350.32,114.84 350.70,114.85">
        <request index="0" response="0" foes="0" cont="0"/>
    </junction>
    <junction id="J36" type="dead_end" x="608.82" y="100.17" incLanes="E32_0" intLanes="" shape="608.64,96.98 608.82,100.17"/>
    <junction id="J37" type="priority" x="353.82" y="102.90" incLanes="E37_0" intLanes=":J37_0_0" shape="354.26,102.89 354.18,99.69 353.40,102.79 353.71,102.87 353.82,102.88 353.94,102.89 354.07,102.89">
        <request index="0" response="0" foes="0" cont="0"/>
    </junction>
    <junction id="J38" type="dead_end" x="609.08" y="96.73" incLanes="E33_0" intLanes="" shape="609.00,93.53 609.08,96.73"/>
    <junction id="J39" type="priority" x="352.99" y="90.38" incLanes="E38_0" intLanes=":J39_0_0" shape="352.99,90.38 353.03,87.18 352.76,87.18 352.67,87.19 352.58,87.20 352.47,87.22 352.32,87.25">
        <request index="0" response="0" foes="0" cont="0"/>
    </junction>
    <junction id="J4" type="dead_end" x="-1.13" y="93.38" incLanes="" intLanes="" shape="-1.13,93.38 -1.19,90.18"/>
    <junction id="J40" type="dead_end" x="609.11" y="93.35" incLanes="E34_0" intLanes="" shape="609.15,90.15 609.11,93.35"/>
    <junction id="J41" type="priority" x="351.94" y="78.25" incLanes="E39_0" intLanes=":J41_0_0" shape="351.94,78.25 352.09,75.05 351.30,75.05 351.02,75.10 350.76,75.21 350.47,75.38 350.10,75.63">
        <request index="0" response="0" foes="0" cont="0"/>
    </junction>
    <junction id="J42" type="dead_end" x="609.05" y="89.94" incLanes="E35_0" intLanes="" shape="609.20,86.74 609.05,89.94"/>
    <junction id="J43" type="priority" x="307.93" y="66.26" incLanes="E44_0" intLanes=":J43_0_0" shape="305.22,67.96 307.93,66.26 304.73,66.09 304.72,66.82 304.77,67.08 304.85,67.33 305.00,67.61">
        <request index="0" response="0" foes="0" cont="0"/>
    </junction>
    <junction id="J44" type="dead_end" x="322.81" y="-210.89" incLanes="E40_0" intLanes="" shape="319.61,-211.06 322.81,-210.89"/>
    <junction id="J45" type="priority" x="318.71" y="63.09" incLanes="E45_0" intLanes=":J45_0_0" shape="315.60,63.84 318.71,63.09 315.51,63.00 315.51,63.31 315.51,63.42 315.53,63.53 315.56,63.66">
        <request index="0" response="0" foes="0" cont="0"/>
    </junction>
    <junction id="J46" type="dead_end" x="326.55" y="-210.56" incLanes="E41_0" intLanes="" shape="323.35,-210.65 326.55,-210.56"/>
    <junction id="J47" type="priority" x="333.56" y="62.62" incLanes="E46_0" intLanes=":J47_0_0" shape="333.56,62.27 330.36,62.31 333.49,62.96 333.54,62.71 333.55,62.62 333.56,62.53 333.56,62.42">
        <request index="0" response="0" foes="0" cont="0"/>
    </junction>
    <junction id="J48" type="dead_end" x="330.03" y="-209.99" incLanes="E42_0" intLanes="" shape="326.83,-209.95 330.03,-209.99"/>
    <junction id="J49" type="priority" x="343.41" y="68.80" incLanes="E47_0" intLanes=":J49_0_0" shape="343.38,67.83 340.18,67.95 342.90,69.62 343.25,69.01 343.33,68.78 343.38,68.53 343.39,68.23">
        <request index="0" response="0" foes="0" cont="0"/>
    </junction>
    <junction id="J5" type="priority" x="292.81" y="87.70" incLanes="E2_0" intLanes=":J5_0_0" shape="292.81,87.70 293.57,84.59 293.27,84.52 293.17,84.51 293.06,84.50 292.93,84.50 292.75,84.50">
        <request index="0" response="0" foes="0" cont="0"/>
    </junction>