<?xml version="1.0" encoding="UTF-8"?>

<!-- generated on 2022-06-06 14:27:19 by Eclipse SUMO netconvert Version 1.13.0
<configuration xmlns:xsi="http://www.w3.org/2001/XMLSchema-instance" xsi:noNamespaceSchemaLocation="http://sumo.dlr.de/xsd/netconvertConfiguration.xsd">

    <input>
        <osm-files value="map.osm"/>
    </input>

    <output>
        <output-file value="map.net.xml"/>
    </output>

    <projection>
        <proj.utm value="true"/>
    </projection>

    <report>
        <aggregate-warnings value="5"/>
    </report>

</configuration>
-->

<net version="1.9" junctionCornerDetail="5" limitTurnSpeed="5.50" xmlns:xsi="http://www.w3.org/2001/XMLSchema-instance" xsi:noNamespaceSchemaLocation="http://sumo.dlr.de/xsd/net_file.xsd">

    <location netOffset="-318335.90,-2755162.02" convBoundary="0.00,0.00,1521.65,1429.95" origBoundary="67.201370,24.900779,67.216304,24.913791" projParameter="+proj=utm +zone=42 +ellps=WGS84 +datum=WGS84 +units=m +no_defs"/>

    <type id="highway.bridleway" priority="1" numLanes="1" speed="2.78" allow="pedestrian" oneway="1" width="2.00"/>
    <type id="highway.bus_guideway" priority="1" numLanes="1" speed="27.78" allow="bus" oneway="1"/>
    <type id="highway.cycleway" priority="1" numLanes="1" speed="8.33" allow="bicycle" oneway="0" width="1.00"/>
    <type id="highway.footway" priority="1" numLanes="1" speed="2.78" allow="pedestrian" oneway="1" width="2.00"/>
    <type id="highway.ford" priority="1" numLanes="1" speed="2.78" allow="army" oneway="0"/>
    <type id="highway.living_street" priority="2" numLanes="1" speed="2.78" disallow="tram rail_urban rail rail_electric rail_fast ship" oneway="0"/>
    <type id="highway.motorway" priority="14" numLanes="2" speed="39.44" allow="private emergency authority army vip passenger hov taxi bus coach delivery truck trailer motorcycle evehicle custom1 custom2" oneway="1"/>
    <type id="highway.motorway_link" priority="9" numLanes="1" speed="22.22" allow="private emergency authority army vip passenger hov taxi bus coach delivery truck trailer motorcycle evehicle custom1 custom2" oneway="1"/>
    <type id="highway.path" priority="1" numLanes="1" speed="2.78" allow="pedestrian bicycle" oneway="0" width="2.00"/>
    <type id="highway.pedestrian" priority="1" numLanes="1" speed="2.78" allow="pedestrian" oneway="1" width="2.00"/>
    <type id="highway.primary" priority="12" numLanes="2" speed="27.78" disallow="tram rail_urban rail rail_electric rail_fast ship" oneway="0"/>
    <type id="highway.primary_link" priority="7" numLanes="1" speed="22.22" disallow="tram rail_urban rail rail_electric rail_fast ship" oneway="0"/>
    <type id="highway.raceway" priority="15" numLanes="2" speed="83.33" allow="vip" oneway="0"/>
    <type id="highway.residential" priority="3" numLanes="1" speed="13.89" disallow="tram rail_urban rail rail_electric rail_fast ship" oneway="0"/>
    <type id="highway.secondary" priority="11" numLanes="1" speed="27.78" disallow="tram rail_urban rail rail_electric rail_fast ship" oneway="0"/>
    <type id="highway.secondary_link" priority="6" numLanes="1" speed="22.22" disallow="tram rail_urban rail rail_electric rail_fast ship" oneway="0"/>
    <type id="highway.service" priority="1" numLanes="1" speed="5.56" allow="pedestrian delivery bicycle" oneway="0"/>
    <type id="highway.stairs" priority="1" numLanes="1" speed="1.39" allow="pedestrian" oneway="1" width="2.00"/>
    <type id="highway.step" priority="1" numLanes="1" speed="1.39" allow="pedestrian" oneway="1" width="2.00"/>
    <type id="highway.steps" priority="1" numLanes="1" speed="1.39" allow="pedestrian" oneway="1" width="2.00"/>
    <type id="highway.tertiary" priority="10" numLanes="1" speed="22.22" disallow="tram rail_urban rail rail_electric rail_fast ship" oneway="0"/>
    <type id="highway.tertiary_link" priority="5" numLanes="1" speed="22.22" disallow="tram rail_urban rail rail_electric rail_fast ship" oneway="0"/>
    <type id="highway.track" priority="1" numLanes="1" speed="5.56" allow="pedestrian motorcycle moped bicycle" oneway="0"/>
    <type id="highway.trunk" priority="13" numLanes="2" speed="27.78" disallow="pedestrian bicycle tram rail_urban rail rail_electric rail_fast ship" oneway="0"/>
    <type id="highway.trunk_link" priority="8" numLanes="1" speed="22.22" disallow="pedestrian bicycle tram rail_urban rail rail_electric rail_fast ship" oneway="0"/>
    <type id="highway.unclassified" priority="4" numLanes="1" speed="13.89" disallow="tram rail_urban rail rail_electric rail_fast ship" oneway="0"/>
    <type id="highway.unsurfaced" priority="1" numLanes="1" speed="8.33" disallow="tram rail_urban rail rail_electric rail_fast ship" oneway="0"/>
    <type id="railway.highspeed" priority="21" numLanes="1" speed="69.44" allow="rail_fast" oneway="1"/>
    <type id="railway.light_rail" priority="19" numLanes="1" speed="27.78" allow="rail_urban" oneway="1"/>
    <type id="railway.preserved" priority="16" numLanes="1" speed="27.78" allow="rail" oneway="1"/>
    <type id="railway.rail" priority="20" numLanes="1" speed="44.44" allow="rail" oneway="1"/>
    <type id="railway.subway" priority="18" numLanes="1" speed="27.78" allow="rail_urban" oneway="1"/>
    <type id="railway.tram" priority="17" numLanes="1" speed="13.89" allow="tram" oneway="1"/>

    <edge id=":2290498321_0" function="internal">
        <lane id=":2290498321_0_0" index="0" disallow="tram rail_urban rail rail_electric rail_fast ship" speed="22.22" length="9.68" shape="1350.59,925.04 1359.85,927.93"/>
        <lane id=":2290498321_0_1" index="1" disallow="tram rail_urban rail rail_electric rail_fast ship" speed="22.22" length="9.68" shape="1349.66,928.10 1358.87,930.97"/>
    </edge>
    <edge id=":2290498321_2" function="internal">
        <lane id=":2290498321_2_0" index="0" disallow="tram rail_urban rail rail_electric rail_fast ship" speed="5.86" length="8.59" shape="1349.66,928.10 1352.40,929.22 1354.02,930.56 1354.52,932.11 1353.89,933.89"/>
    </edge>
    <edge id=":2290498321_3" function="internal">
        <lane id=":2290498321_3_0" index="0" disallow="tram rail_urban rail rail_electric rail_fast ship" speed="6.92" length="8.38" shape="1351.18,932.19 1352.39,930.96 1354.07,930.35 1356.23,930.35 1358.87,930.97"/>
    </edge>
    <edge id=":2290498321_4" function="internal">
        <lane id=":2290498321_4_0" index="0" disallow="tram rail_urban rail rail_electric rail_fast ship" speed="3.65" length="4.67" shape="1351.18,932.19 1352.50,931.60 1353.39,931.69 1353.85,932.45 1353.89,933.89"/>
    </edge>
    <edge id=":2290498332_0" function="internal">
        <lane id=":2290498332_0_0" index="0" disallow="tram rail_urban rail rail_electric rail_fast ship" speed="5.82" length="10.81" shape="851.01,570.08 851.12,567.05 852.28,565.62 854.49,565.80 857.76,567.59"/>
    </edge>
    <edge id=":2290498332_1" function="internal">
        <lane id=":2290498332_1_0" index="0" disallow="tram rail_urban rail rail_electric rail_fast ship" speed="3.65" length="4.67" shape="851.01,570.08 851.67,568.80 852.42,568.31 853.26,568.62 854.19,569.73"/>
    </edge>
    <edge id=":2290498332_2" function="internal">
        <lane id=":2290498332_2_0" index="0" disallow="tram rail_urban rail rail_electric rail_fast ship" speed="22.22" length="11.38" shape="850.23,558.50 859.56,564.95"/>
        <lane id=":2290498332_2_1" index="1" disallow="tram rail_urban rail rail_electric rail_fast ship" speed="22.22" length="11.38" shape="848.37,561.10 857.76,567.59"/>
    </edge>
    <edge id=":2290498332_4" function="internal">
        <lane id=":2290498332_4_0" index="0" disallow="tram rail_urban rail rail_electric rail_fast ship" speed="10.31" length="10.72" shape="848.37,561.10 850.72,563.06 852.47,565.15 853.63,567.38 854.19,569.73"/>
    </edge>
    <edge id=":2290498339_0" function="internal">
        <lane id=":2290498339_0_0" index="0" disallow="tram rail_urban rail rail_electric rail_fast ship" speed="22.22" length="9.57" shape="1325.76,904.65 1323.10,903.64 1321.30,902.91 1319.54,902.09 1316.99,900.82"/>
    </edge>
    <edge id=":2290498339_1" function="internal">
        <lane id=":2290498339_1_0" index="0" disallow="tram rail_urban rail rail_electric rail_fast ship" speed="6.11" length="7.95" shape="1325.76,904.65 1323.24,903.48 1321.63,902.19 1320.91,900.78 1321.09,899.26"/>
    </edge>
    <edge id=":2290498339_2" function="internal">
        <lane id=":2290498339_2_0" index="0" disallow="tram rail_urban rail rail_electric rail_fast ship" speed="6.00" length="7.99" shape="1324.06,900.45 1323.13,901.69 1321.64,902.17 1319.60,901.88 1316.99,900.82"/>
    </edge>
    <edge id=":2290498339_3" function="internal">
        <lane id=":2290498339_3_0" index="0" disallow="tram rail_urban rail rail_electric rail_fast ship" speed="3.65" length="4.67" shape="1324.06,900.45 1322.87,901.27 1321.98,901.34 1321.39,900.67 1321.09,899.26"/>
    </edge>
    <edge id=":2290498340_0" function="internal">
        <lane id=":2290498340_0_0" index="0" disallow="tram rail_urban rail rail_electric rail_fast ship" speed="22.22" length="9.54" shape="1294.27,889.49 1285.93,884.88"/>
    </edge>
    <edge id=":2290498340_1" function="internal">
        <lane id=":2290498340_1_0" index="0" disallow="tram rail_urban rail rail_electric rail_fast ship" speed="6.17" length="7.96" shape="1294.27,889.49 1291.91,888.07 1290.43,886.62 1289.84,885.15 1290.13,883.64"/>
    </edge>
    <edge id=":2290498340_2" function="internal">
        <lane id=":2290498340_2_0" index="0" disallow="tram rail_urban rail rail_electric rail_fast ship" speed="5.99" length="8.03" shape="1293.01,885.03 1291.99,886.22 1290.46,886.59 1288.44,886.14 1285.93,884.88"/>
    </edge>
    <edge id=":2290498340_3" function="internal">
        <lane id=":2290498340_3_0" index="0" disallow="tram rail_urban rail rail_electric rail_fast ship" speed="3.65" length="4.67" shape="1293.01,885.03 1291.77,885.76 1290.87,885.77 1290.33,885.07 1290.13,883.64"/>
    </edge>
    <edge id=":2290498349_0" function="internal">
        <lane id=":2290498349_0_0" index="0" disallow="tram rail_urban rail rail_electric rail_fast ship" speed="22.22" length="9.68" shape="1025.69,678.35 1018.58,671.80"/>
    </edge>
    <edge id=":2290498349_1" function="internal">
        <lane id=":2290498349_1_0" index="0" disallow="tram rail_urban rail rail_electric rail_fast ship" speed="7.25" length="8.50" shape="1025.69,678.35 1023.88,676.32 1022.80,674.40 1022.46,672.60 1022.84,670.90"/>
    </edge>
    <edge id=":2290498349_2" function="internal">
        <lane id=":2290498349_2_0" index="0" disallow="tram rail_urban rail rail_electric rail_fast ship" speed="5.84" length="8.71" shape="1025.75,672.22 1024.58,673.79 1022.99,674.24 1020.99,673.58 1018.58,671.80"/>
    </edge>
    <edge id=":2290498349_3" function="internal">
        <lane id=":2290498349_3_0" index="0" disallow="tram rail_urban rail rail_electric rail_fast ship" speed="3.65" length="4.67" shape="1025.75,672.22 1024.53,672.98 1023.63,673.02 1023.07,672.32 1022.84,670.90"/>
    </edge>
    <edge id=":2290498356_0" function="internal">
        <lane id=":2290498356_0_0" index="0" disallow="tram rail_urban rail rail_electric rail_fast ship" speed="22.22" length="9.33" shape="1251.95,873.71 1259.40,879.27"/>
        <lane id=":2290498356_0_1" index="1" disallow="tram rail_urban rail rail_electric rail_fast ship" speed="22.22" length="9.33" shape="1250.01,876.25 1257.51,881.85"/>
    </edge>
    <edge id=":2290498356_2" function="internal">
        <lane id=":2290498356_2_0" index="0" disallow="tram rail_urban rail rail_electric rail_fast ship" speed="6.19" length="7.78" shape="1250.01,876.25 1252.06,878.07 1253.28,879.73 1253.65,881.23 1253.19,882.58"/>
    </edge>
    <edge id=":2290498356_3" function="internal">
        <lane id=":2290498356_3_0" index="0" disallow="tram rail_urban rail rail_electric rail_fast ship" speed="6.06" length="7.82" shape="1250.56,880.76 1251.68,879.84 1253.21,879.71 1255.16,880.39 1257.51,881.85"/>
    </edge>
    <edge id=":2290498356_4" function="internal">
        <lane id=":2290498356_4_0" index="0" disallow="tram rail_urban rail rail_electric rail_fast ship" speed="3.65" length="4.67" shape="1250.56,880.76 1251.90,880.23 1252.79,880.36 1253.21,881.14 1253.19,882.58"/>
    </edge>
    <edge id=":2290498395_0" function="internal">
        <lane id=":2290498395_0_0" index="0" disallow="tram rail_urban rail rail_electric rail_fast ship" speed="22.22" length="9.61" shape="1120.78,763.36 1113.15,757.51"/>
    </edge>
    <edge id=":2290498395_1" function="internal">
        <lane id=":2290498395_1_0" index="0" disallow="tram rail_urban rail rail_electric rail_fast ship" speed="6.70" length="8.27" shape="1120.78,763.36 1118.72,761.59 1117.48,759.86 1117.04,758.18 1117.41,756.53"/>
    </edge>
    <edge id=":2290498395_2" function="internal">
        <lane id=":2290498395_2_0" index="0" disallow="tram rail_urban rail rail_electric rail_fast ship" speed="5.89" length="8.46" shape="1120.30,757.91 1119.16,759.33 1117.59,759.73 1115.59,759.13 1113.15,757.51"/>
    </edge>
    <edge id=":2290498395_3" function="internal">
        <lane id=":2290498395_3_0" index="0" disallow="tram rail_urban rail rail_electric rail_fast ship" speed="3.65" length="4.67" shape="1120.30,757.91 1119.06,758.65 1118.16,758.67 1117.61,757.96 1117.41,756.53"/>
    </edge>
    <edge id=":2290498397_0" function="internal">
        <lane id=":2290498397_0_0" index="0" disallow="tram rail_urban rail rail_electric rail_fast ship" speed="22.22" length="9.74" shape="1095.17,743.16 1087.81,736.76"/>
    </edge>
    <edge id=":2290498397_1" function="internal">
        <lane id=":2290498397_1_0" index="0" disallow="tram rail_urban rail rail_electric rail_fast ship" speed="6.86" length="8.46" shape="1095.17,743.16 1093.20,741.29 1092.03,739.47 1091.67,737.70 1092.10,735.97"/>
    </edge>
    <edge id=":2290498397_2" function="internal">
        <lane id=":2290498397_2_0" index="0" disallow="tram rail_urban rail rail_electric rail_fast ship" speed="5.85" length="8.69" shape="1094.97,737.38 1093.76,738.90 1092.16,739.30 1090.18,738.59 1087.81,736.76"/>
    </edge>
    <edge id=":2290498397_3" function="internal">
        <lane id=":2290498397_3_0" index="0" disallow="tram rail_urban rail rail_electric rail_fast ship" speed="3.65" length="4.67" shape="1094.97,737.38 1093.73,738.11 1092.83,738.12 1092.29,737.40 1092.10,735.97"/>
    </edge>
    <edge id=":2290498401_0" function="internal">
        <lane id=":2290498401_0_0" index="0" disallow="tram rail_urban rail rail_electric rail_fast ship" speed="22.22" length="9.56" shape="980.57,637.90 973.33,631.65"/>
    </edge>
    <edge id=":2290498401_1" function="internal">
        <lane id=":2290498401_1_0" index="0" disallow="tram rail_urban rail rail_electric rail_fast ship" speed="6.94" length="8.29" shape="980.57,637.90 978.69,635.95 977.57,634.10 977.21,632.37 977.61,630.76"/>
    </edge>
    <edge id=":2290498401_2" function="internal">
        <lane id=":2290498401_2_0" index="0" disallow="tram rail_urban rail rail_electric rail_fast ship" speed="5.88" length="8.49" shape="980.48,632.18 979.31,633.60 977.73,633.98 975.74,633.33 973.33,631.65"/>
    </edge>
    <edge id=":2290498401_3" function="internal">
        <lane id=":2290498401_3_0" index="0" disallow="tram rail_urban rail rail_electric rail_fast ship" speed="3.65" length="4.67" shape="980.48,632.18 979.23,632.90 978.33,632.90 977.79,632.19 977.61,630.76"/>
    </edge>
    <edge id=":2290498443_0" function="internal">
        <lane id=":2290498443_0_0" index="0" disallow="tram rail_urban rail rail_electric rail_fast ship" speed="22.22" length="9.56" shape="1165.26,796.53 1157.59,790.84"/>
    </edge>
    <edge id=":2290498443_1" function="internal">
        <lane id=":2290498443_1_0" index="0" disallow="tram rail_urban rail rail_electric rail_fast ship" speed="6.59" length="8.17" shape="1165.26,796.53 1163.19,794.78 1161.93,793.09 1161.48,791.44 1161.85,789.85"/>
    </edge>
    <edge id=":2290498443_2" function="internal">
        <lane id=":2290498443_2_0" index="0" disallow="tram rail_urban rail rail_electric rail_fast ship" speed="5.91" length="8.34" shape="1164.72,791.27 1163.59,792.61 1162.03,792.99 1160.03,792.40 1157.59,790.84"/>
    </edge>
    <edge id=":2290498443_3" function="internal">
        <lane id=":2290498443_3_0" index="0" disallow="tram rail_urban rail rail_electric rail_fast ship" speed="3.65" length="4.67" shape="1164.72,791.27 1163.47,791.99 1162.57,791.99 1162.03,791.28 1161.85,789.85"/>
    </edge>
    <edge id=":2290498468_0" function="internal">
        <lane id=":2290498468_0_0" index="0" disallow="tram rail_urban rail rail_electric rail_fast ship" speed="22.22" length="14.25" shape="1091.20,754.29 1094.30,757.09 1096.48,758.94 1098.75,760.68 1102.11,763.17"/>
        <lane id=":2290498468_0_1" index="1" disallow="tram rail_urban rail rail_electric rail_fast ship" speed="22.22" length="14.25" shape="1089.04,756.66 1092.22,759.52 1094.45,761.41 1096.77,763.20 1100.21,765.74"/>
    </edge>
    <edge id=":2290498468_2" function="internal">
        <lane id=":2290498468_2_0" index="0" disallow="tram rail_urban rail rail_electric rail_fast ship" speed="8.45" length="12.42" shape="1089.04,756.66 1091.64,759.49 1093.15,762.26 1093.56,764.94 1092.86,767.56"/>
    </edge>
    <edge id=":2290498468_3" function="internal">
        <lane id=":2290498468_3_0" index="0" disallow="tram rail_urban rail rail_electric rail_fast ship" speed="6.99" length="12.10" shape="1089.98,766.17 1091.68,763.93 1093.96,763.11 1096.80,763.72 1100.21,765.74"/>
    </edge>
    <edge id=":2290498468_4" function="internal">
        <lane id=":2290498468_4_0" index="0" disallow="tram rail_urban rail rail_electric rail_fast ship" speed="3.65" length="4.67" shape="1089.98,766.17 1091.22,765.44 1092.12,765.42 1092.66,766.13 1092.86,767.56"/>
    </edge>
    <edge id=":2290498472_0" function="internal">
        <lane id=":2290498472_0_0" index="0" disallow="tram rail_urban rail rail_electric rail_fast ship" speed="22.22" length="9.31" shape="952.47,614.07 950.35,612.30 948.87,611.12 947.34,610.01 945.07,608.44"/>
    </edge>
    <edge id=":2290498472_1" function="internal">
        <lane id=":2290498472_1_0" index="0" disallow="tram rail_urban rail rail_electric rail_fast ship" speed="6.57" length="7.90" shape="952.47,614.07 950.53,612.19 949.37,610.46 948.97,608.88 949.34,607.45"/>
    </edge>
    <edge id=":2290498472_2" function="internal">
        <lane id=":2290498472_2_0" index="0" disallow="tram rail_urban rail rail_electric rail_fast ship" speed="5.99" length="8.03" shape="952.13,609.01 951.04,610.14 949.50,610.42 947.51,609.85 945.07,608.44"/>
    </edge>
    <edge id=":2290498472_3" function="internal">
        <lane id=":2290498472_3_0" index="0" disallow="tram rail_urban rail rail_electric rail_fast ship" speed="3.65" length="4.67" shape="952.13,609.01 950.85,609.67 949.95,609.63 949.45,608.89 949.34,607.45"/>
    </edge>
    <edge id=":2290498485_0" function="internal">
        <lane id=":2290498485_0_0" index="0" disallow="tram rail_urban rail rail_electric rail_fast ship" speed="22.22" length="9.79" shape="1049.13,700.73 1042.02,694.00"/>
    </edge>
    <edge id=":2290498485_1" function="internal">
        <lane id=":2290498485_1_0" index="0" disallow="tram rail_urban rail rail_electric rail_fast ship" speed="7.24" length="8.62" shape="1049.13,700.73 1047.30,698.72 1046.22,696.79 1045.88,694.94 1046.29,693.18"/>
    </edge>
    <edge id=":2290498485_2" function="internal">
        <lane id=":2290498485_2_0" index="0" disallow="tram rail_urban rail rail_electric rail_fast ship" speed="5.83" length="8.85" shape="1049.20,694.51 1048.00,696.14 1046.40,696.60 1044.41,695.89 1042.02,694.00"/>
    </edge>
    <edge id=":2290498485_3" function="internal">
        <lane id=":2290498485_3_0" index="0" disallow="tram rail_urban rail rail_electric rail_fast ship" speed="3.65" length="4.67" shape="1049.20,694.51 1047.98,695.27 1047.08,695.30 1046.52,694.61 1046.29,693.18"/>
    </edge>
    <edge id=":2290508506_0" function="internal">
        <lane id=":2290508506_0_0" index="0" disallow="tram rail_urban rail rail_electric rail_fast ship" speed="3.65" length="4.67" shape="1488.28,686.98 1489.41,687.87 1489.74,688.70 1489.28,689.47 1488.02,690.17"/>
    </edge>
    <edge id=":2290508508_0" function="internal">
        <lane id=":2290508508_0_0" index="0" disallow="tram rail_urban rail rail_electric rail_fast ship" speed="3.65" length="4.67" shape="388.42,622.06 387.87,620.72 387.99,619.83 388.77,619.40 390.21,619.41"/>
    </edge>
    <edge id=":2290508535_0" function="internal">
        <lane id=":2290508535_0_0" index="0" disallow="tram rail_urban rail rail_electric rail_fast ship" speed="13.89" length="16.91" shape="1068.99,787.76 1052.11,788.83"/>
    </edge>
    <edge id=":2290508535_1" function="internal">
        <lane id=":2290508535_1_0" index="0" disallow="tram rail_urban rail rail_electric rail_fast ship" speed="13.89" length="2.88" shape="1068.99,787.76 1066.16,787.22"/>
    </edge>
    <edge id=":2290508535_2" function="internal">
        <lane id=":2290508535_2_0" index="0" disallow="tram rail_urban rail rail_electric rail_fast ship" speed="3.65" length="1.44" shape="1068.99,787.76 1067.78,786.97"/>
    </edge>
    <edge id=":2290508535_9" function="internal">
        <lane id=":2290508535_9_0" index="0" disallow="tram rail_urban rail rail_electric rail_fast ship" speed="13.89" length="14.66" shape="1066.16,787.22 1065.02,787.00 1060.86,785.04 1056.92,782.49 1053.57,779.94"/>
    </edge>
    <edge id=":2290508535_10" function="internal">
        <lane id=":2290508535_10_0" index="0" disallow="tram rail_urban rail rail_electric rail_fast ship" speed="3.65" length="3.23" shape="1067.78,786.97 1067.38,786.17 1067.77,785.37 1068.97,784.56"/>
    </edge>
    <edge id=":2290508535_3" function="internal">
        <lane id=":2290508535_3_0" index="0" disallow="tram rail_urban rail rail_electric rail_fast ship" speed="13.89" length="15.43" shape="1055.59,777.45 1058.62,779.90 1061.86,782.20 1065.31,783.91 1068.97,784.56"/>
    </edge>
    <edge id=":2290508535_4" function="internal">
        <lane id=":2290508535_4_0" index="0" disallow="tram rail_urban rail rail_electric rail_fast ship" speed="7.43" length="19.52" shape="1055.59,777.45 1059.99,781.91 1060.88,785.29 1058.25,787.60 1052.11,788.83"/>
    </edge>
    <edge id=":2290508535_5" function="internal">
        <lane id=":2290508535_5_0" index="0" disallow="tram rail_urban rail rail_electric rail_fast ship" speed="3.65" length="4.67" shape="1055.59,777.45 1056.02,778.83 1055.82,779.70 1055.01,780.07 1053.57,779.94"/>
    </edge>
    <edge id=":2290508535_6" function="internal">
        <lane id=":2290508535_6_0" index="0" disallow="tram rail_urban rail rail_electric rail_fast ship" speed="5.47" length="9.79" shape="1051.83,785.64 1054.91,785.03 1056.23,783.87 1055.78,782.17 1053.57,779.94"/>
    </edge>
    <edge id=":2290508535_7" function="internal">
        <lane id=":2290508535_7_0" index="0" disallow="tram rail_urban rail rail_electric rail_fast ship" speed="13.89" length="17.17" shape="1051.83,785.64 1068.97,784.56"/>
    </edge>
    <edge id=":2290508535_8" function="internal">
        <lane id=":2290508535_8_0" index="0" disallow="tram rail_urban rail rail_electric rail_fast ship" speed="3.65" length="1.44" shape="1051.83,785.64 1053.10,786.34"/>
    </edge>
    <edge id=":2290508535_11" function="internal">
        <lane id=":2290508535_11_0" index="0" disallow="tram rail_urban rail rail_electric rail_fast ship" speed="3.65" length="3.23" shape="1053.10,786.34 1053.56,787.10 1053.24,787.93 1052.11,788.83"/>
    </edge>
    <edge id=":2290508573_0" function="internal">
        <lane id=":2290508573_0_0" index="0" disallow="tram rail_urban rail rail_electric rail_fast ship" speed="6.15" length="9.06" shape="880.97,901.22 880.39,898.74 879.16,897.19 877.28,896.57 874.75,896.88"/>
    </edge>
    <edge id=":2290508573_1" function="internal">
        <lane id=":2290508573_1_0" index="0" disallow="tram rail_urban rail rail_electric rail_fast ship" speed="13.89" length="14.64" shape="880.97,901.22 879.70,886.63"/>
    </edge>
    <edge id=":2290508573_2" function="internal">
        <lane id=":2290508573_2_0" index="0" disallow="tram rail_urban rail rail_electric rail_fast ship" speed="7.82" length="4.19" shape="880.97,901.22 881.19,897.04"/>
    </edge>
    <edge id=":2290508573_3" function="internal">
        <lane id=":2290508573_3_0" index="0" disallow="tram rail_urban rail rail_electric rail_fast ship" speed="3.65" length="1.44" shape="880.97,901.22 881.66,899.96"/>
    </edge>
    <edge id=":2290508573_16" function="internal">
        <lane id=":2290508573_16_0" index="0" disallow="tram rail_urban rail rail_electric rail_fast ship" speed="7.82" length="10.67" shape="881.19,897.04 882.71,894.11 885.51,892.43 889.59,892.01"/>
    </edge>
    <edge id=":2290508573_17" function="internal">
        <lane id=":2290508573_17_0" index="0" disallow="tram rail_urban rail rail_electric rail_fast ship" speed="3.65" length="3.23" shape="881.66,899.96 882.42,899.49 883.26,899.82 884.16,900.94"/>
    </edge>
    <edge id=":2290508573_4" function="internal">
        <lane id=":2290508573_4_0" index="0" disallow="tram rail_urban rail rail_electric rail_fast ship" speed="6.29" length="9.19" shape="889.45,895.21 886.94,895.47 885.22,896.51 884.29,898.34 884.16,900.94"/>
    </edge>
    <edge id=":2290508573_5" function="internal">
        <lane id=":2290508573_5_0" index="0" disallow="tram rail_urban rail rail_electric rail_fast ship" speed="13.89" length="14.86" shape="889.45,895.21 885.73,895.19 882.04,895.47 878.38,896.04 874.75,896.88"/>
    </edge>
    <edge id=":2290508573_6" function="internal">
        <lane id=":2290508573_6_0" index="0" disallow="tram rail_urban rail rail_electric rail_fast ship" speed="8.46" length="14.41" shape="889.45,895.21 885.45,894.52 882.50,892.87 880.58,890.23 879.70,886.63"/>
    </edge>
    <edge id=":2290508573_7" function="internal">
        <lane id=":2290508573_7_0" index="0" disallow="tram rail_urban rail rail_electric rail_fast ship" speed="3.65" length="4.67" shape="889.45,895.21 888.29,894.36 887.93,893.54 888.36,892.76 889.59,892.01"/>
    </edge>
    <edge id=":2290508573_8" function="internal">
        <lane id=":2290508573_8_0" index="0" disallow="tram rail_urban rail rail_electric rail_fast ship" speed="7.06" length="9.73" shape="882.89,886.35 883.49,888.73 884.80,890.46 886.84,891.56 889.59,892.01"/>
    </edge>
    <edge id=":2290508573_9" function="internal">
        <lane id=":2290508573_9_0" index="0" disallow="tram rail_urban rail rail_electric rail_fast ship" speed="13.89" length="14.64" shape="882.89,886.35 884.16,900.94"/>
    </edge>
    <edge id=":2290508573_10" function="internal">
        <lane id=":2290508573_10_0" index="0" disallow="tram rail_urban rail rail_electric rail_fast ship" speed="8.70" length="3.87" shape="882.89,886.35 882.65,890.05 882.57,890.20"/>
    </edge>
    <edge id=":2290508573_11" function="internal">
        <lane id=":2290508573_11_0" index="0" disallow="tram rail_urban rail rail_electric rail_fast ship" speed="3.65" length="1.44" shape="882.89,886.35 882.20,887.62"/>
    </edge>
    <edge id=":2290508573_18" function="internal">
        <lane id=":2290508573_18_0" index="0" disallow="tram rail_urban rail rail_electric rail_fast ship" speed="8.70" length="10.77" shape="882.57,890.20 881.21,893.04 878.57,895.32 874.75,896.88"/>
    </edge>
    <edge id=":2290508573_19" function="internal">
        <lane id=":2290508573_19_0" index="0" disallow="tram rail_urban rail rail_electric rail_fast ship" speed="3.65" length="3.23" shape="882.20,887.62 881.44,888.09 880.60,887.76 879.70,886.63"/>
    </edge>
    <edge id=":2290508573_12" function="internal">
        <lane id=":2290508573_12_0" index="0" disallow="tram rail_urban rail rail_electric rail_fast ship" speed="7.33" length="10.13" shape="873.90,893.80 876.62,892.71 878.49,891.15 879.52,889.12 879.70,886.63"/>
    </edge>
    <edge id=":2290508573_13" function="internal">
        <lane id=":2290508573_13_0" index="0" disallow="tram rail_urban rail rail_electric rail_fast ship" speed="13.89" length="15.84" shape="873.90,893.80 877.69,892.93 881.68,892.33 885.71,892.01 889.59,892.01"/>
    </edge>
    <edge id=":2290508573_14" function="internal">
        <lane id=":2290508573_14_0" index="0" disallow="tram rail_urban rail rail_electric rail_fast ship" speed="7.71" length="14.92" shape="873.90,893.80 878.07,893.28 881.17,894.30 883.20,896.85 884.16,900.94"/>
    </edge>
    <edge id=":2290508573_15" function="internal">
        <lane id=":2290508573_15_0" index="0" disallow="tram rail_urban rail rail_electric rail_fast ship" speed="3.65" length="4.67" shape="873.90,893.80 875.27,894.25 875.87,894.92 875.69,895.80 874.75,896.88"/>
    </edge>
    <edge id=":2290508601_0" function="internal">
        <lane id=":2290508601_0_0" index="0" disallow="tram rail_urban rail rail_electric rail_fast ship" speed="6.44" length="9.03" shape="727.00,544.38 724.76,543.30 722.73,543.21 720.91,544.11 719.30,546.00"/>
    </edge>
    <edge id=":2290508601_1" function="internal">
        <lane id=":2290508601_1_0" index="0" disallow="tram rail_urban rail rail_electric rail_fast ship" speed="13.89" length="14.57" shape="727.00,544.38 714.91,536.24"/>
    </edge>
    <edge id=":2290508601_2" function="internal">
        <lane id=":2290508601_2_0" index="0" disallow="tram rail_urban rail rail_electric rail_fast ship" speed="8.12" length="4.10" shape="727.00,544.38 724.08,541.75 724.00,541.59"/>
    </edge>
    <edge id=":2290508601_3" function="internal">