<?xml version="1.0" encoding="UTF-8"?>
<routes xmlns:xsi="http://www.w3.org/2001/XMLSchema-instance" xsi:noNamespaceSchemaLocation="http://sumo.dlr.de/xsd/routes_file.xsd">
	<trip id="0" depart="0.00" from="edgeId_Shape238_42_1_St" to="edgeId_Shape864_864_1_St" via="edgeId_Shape203_239_1_St edgeId_Shape042_196_1_St edgeId_Shape303_303_1_St edgeId_Shape907_858_1_St edgeId_Shape874_907_1_St edgeId_Shape861_874_1_St edgeId_Shape862_862_1_St "/>
	<trip id="1" depart="1.00" from="edgeId_Shape011_10_1_St" to="edgeId_Shape029_29_1_St" via="edgeId_Shape010_11_1_St edgeId_Shape027_27_1_St "/>
	<trip id="2" depart="2.00" from="edgeId_Shape011_10_1_St" to="edgeId_Shape026_26_1_St" via="edgeId_Shape010_11_1_St "/>
	<trip id="3" depart="3.00" from="edgeId_Shape015_12_1_St" to="edgeId_Shape062_63_1_St" via="edgeId_Shape016_16_1_St edgeId_Shape020_298_1_St edgeId_Shape060_60_1_St "/>
	<trip id="4" depart="4.00" from="edgeId_Shape015_12_1_St" to="edgeId_Shape029_29_1_St" via="edgeId_Shape012_15_1_St edgeId_Shape014_14_1_St edgeId_Shape028_28_1_St "/>
	<trip id="5" depart="5.00" from="edgeId_Shape018_18_1_St" to="edgeId_Shape066_66_1_St" via="edgeId_Shape019_297_1_St "/>
	<trip id="6" depart="6.00" from="edgeId_Shape034_24_1_St" to="edgeId_Shape061_61_1_St" via="edgeId_Shape017_34_1_St edgeId_Shape020_298_1_St edgeId_Shape059_59_1_St "/>
	<trip id="7" depart="7.00" from="edgeId_Shape069_30_1_St" to="edgeId_Shape865_906_1_St" via="edgeId_Shape067_69_1_St edgeId_Shape049_67_1_St edgeId_Shape043_49_1_St edgeId_Shape302_302_1_St edgeId_Shape943_418_1_St edgeId_Shape906_943_1_St "/>
	<trip id="8" depart="8.00" from="edgeId_Shape069_30_1_St" to="edgeId_Shape053_54_1_St" via="edgeId_Shape054_57_1_St "/>
	<trip id="9" depart="9.00" from="edgeId_Shape069_30_1_St" to="edgeId_Shape037_38_1_St" via="edgeId_Shape054_57_1_St edgeId_Shape051_53_1_St edgeId_Shape038_52_1_St "/>
	<trip id="10" depart="10.00" from="edgeId_Shape069_30_1_St" to="edgeId_Shape935_935_1_St" via="edgeId_Shape054_57_1_St edgeId_Shape051_53_1_St edgeId_Shape038_52_1_St edgeId_Shape031_37_1_St edgeId_Shape030_33_1_St edgeId_Shape310_310_1_St edgeId_Shape937_879_1_St edgeId_Shape934_937_1_St "/>
	<trip id="11" depart="11.00" from="edgeId_Shape069_30_1_St" to="edgeId_Shape884_884_1_St" via="edgeId_Shape054_57_1_St edgeId_Shape051_53_1_St edgeId_Shape038_52_1_St edgeId_Shape031_37_1_St edgeId_Shape030_33_1_St edgeId_Shape310_310_1_St edgeId_Shape937_879_1_St edgeId_Shape909_934_1_St edgeId_Shape883_910_1_St "/>
	<trip id="12" depart="12.00" from="edgeId_Shape069_30_1_St" to="edgeId_Shape867_871_1_St" via="edgeId_Shape054_57_1_St edgeId_Shape051_53_1_St edgeId_Shape038_52_1_St edgeId_Shape031_37_1_St edgeId_Shape030_33_1_St edgeId_Shape310_310_1_St edgeId_Shape937_879_1_St edgeId_Shape909_934_1_St edgeId_Shape883_910_1_St edgeId_Shape882_883_1_St edgeId_Shape880_882_1_St edgeId_Shape870_880_1_St "/>
	<trip id="13" depart="13.00" from="edgeId_Shape032_31_1_St" to="edgeId_Shape867_871_1_St" via="edgeId_Shape030_33_1_St edgeId_Shape310_310_1_St edgeId_Shape937_879_1_St edgeId_Shape909_934_1_St edgeId_Shape883_910_1_St edgeId_Shape882_883_1_St edgeId_Shape880_882_1_St edgeId_Shape870_880_1_St "/>
	<trip id="14" depart="14.00" from="edgeId_Shape070_32_1_St" to="edgeId_Shape867_871_1_St" via="edgeId_Shape068_70_1_St edgeId_Shape033_68_1_St edgeId_Shape030_33_1_St edgeId_Shape310_310_1_St edgeId_Shape937_879_1_St edgeId_Shape909_934_1_St edgeId_Shape883_910_1_St edgeId_Shape882_883_1_St edgeId_Shape880_882_1_St edgeId_Shape870_880_1_St "/>
	<trip id="15" depart="15.00" from="edgeId_Shape035_35_1_St" to="edgeId_Shape036_36_1_St"/>
	<trip id="16" depart="16.00" from="edgeId_Shape240_41_1_St" to="edgeId_Shape426_567_1_St" via="edgeId_Shape239_240_1_St edgeId_Shape203_239_1_St edgeId_Shape197_203_1_St edgeId_Shape158_197_1_St edgeId_Shape126_158_1_St edgeId_Shape108_126_1_St edgeId_Shape071_109_1_St edgeId_Shape047_71_1_St edgeId_Shape045_47_1_St edgeId_Shape300_300_1_St edgeId_Shape905_678_1_St edgeId_Shape873_905_1_St edgeId_Shape827_873_1_St edgeId_Shape781_828_1_St edgeId_Shape683_781_1_St edgeId_Shape567_683_1_St "/>
	<trip id="17" depart="17.00" from="edgeId_Shape240_41_1_St" to="edgeId_Shape421_422_1_St" via="edgeId_Shape041_238_1_St edgeId_Shape304_304_1_St edgeId_Shape944_421_1_St edgeId_Shape763_944_1_St edgeId_Shape422_763_1_St "/>
	<trip id="18" depart="18.00" from="edgeId_Shape238_42_1_St" to="edgeId_Shape864_864_1_St" via="edgeId_Shape203_239_1_St edgeId_Shape042_196_1_St edgeId_Shape303_303_1_St edgeId_Shape907_858_1_St edgeId_Shape874_907_1_St edgeId_Shape861_874_1_St edgeId_Shape862_862_1_St "/>
	<trip id="19" depart="19.00" from="edgeId_Shape238_42_1_St" to="edgeId_Shape859_859_1_St" via="edgeId_Shape203_239_1_St edgeId_Shape042_196_1_St edgeId_Shape303_303_1_St edgeId_Shape907_858_1_St edgeId_Shape874_907_1_St edgeId_Shape858_861_1_St "/>
	<trip id="20" depart="20.00" from="edgeId_Shape099_43_1_St" to="edgeId_Shape124_124_1_St" via="edgeId_Shape090_99_1_St edgeId_Shape046_90_1_St edgeId_Shape025_46_1_St edgeId_Shape022_25_1_St edgeId_Shape023_23_1_St edgeId_Shape056_56_1_St edgeId_Shape076_76_1_St edgeId_Shape080_80_1_St edgeId_Shape107_107_1_St "/>
	<trip id="21" depart="21.00" from="edgeId_Shape099_43_1_St" to="edgeId_Shape427_609_1_St" via="edgeId_Shape091_89_1_St edgeId_Shape072_92_1_St edgeId_Shape048_73_1_St edgeId_Shape043_49_1_St edgeId_Shape302_302_1_St edgeId_Shape943_418_1_St edgeId_Shape856_865_1_St edgeId_Shape798_856_1_St edgeId_Shape764_798_1_St edgeId_Shape715_765_1_St edgeId_Shape682_716_1_St edgeId_Shape678_682_1_St edgeId_Shape609_679_1_St "/>
	<trip id="22" depart="22.00" from="edgeId_Shape099_43_1_St" to="edgeId_Shape430_431_1_St" via="edgeId_Shape091_89_1_St edgeId_Shape072_92_1_St edgeId_Shape048_73_1_St edgeId_Shape043_49_1_St edgeId_Shape302_302_1_St edgeId_Shape943_418_1_St edgeId_Shape856_865_1_St edgeId_Shape798_856_1_St edgeId_Shape764_798_1_St edgeId_Shape715_765_1_St edgeId_Shape682_716_1_St edgeId_Shape565_427_1_St edgeId_Shape431_566_1_St "/>
	<trip id="23" depart="23.00" from="edgeId_Shape099_43_1_St" to="edgeId_Shape419_420_1_St" via="edgeId_Shape091_89_1_St edgeId_Shape072_92_1_St edgeId_Shape048_73_1_St edgeId_Shape043_49_1_St edgeId_Shape302_302_1_St edgeId_Shape943_418_1_St edgeId_Shape856_865_1_St edgeId_Shape798_856_1_St edgeId_Shape764_798_1_St edgeId_Shape715_765_1_St edgeId_Shape682_716_1_St edgeId_Shape565_427_1_St edgeId_Shape431_566_1_St edgeId_Shape420_430_1_St "/>
	<trip id="24" depart="24.00" from="edgeId_Shape099_43_1_St" to="edgeId_Shape418_419_1_St" via="edgeId_Shape091_89_1_St edgeId_Shape072_92_1_St edgeId_Shape048_73_1_St edgeId_Shape043_49_1_St edgeId_Shape302_302_1_St edgeId_Shape943_418_1_St edgeId_Shape856_865_1_St edgeId_Shape798_856_1_St edgeId_Shape764_798_1_St edgeId_Shape715_765_1_St edgeId_Shape682_716_1_St edgeId_Shape565_427_1_St edgeId_Shape431_566_1_St edgeId_Shape420_430_1_St "/>
	<trip id="25" depart="25.00" from="edgeId_Shape230_44_1_St" to="edgeId_Shape234_234_1_St" via="edgeId_Shape231_231_1_St edgeId_Shape232_232_1_St "/>
	<trip id="26" depart="26.00" from="edgeId_Shape230_44_1_St" to="edgeId_Shape427_609_1_St" via="edgeId_Shape218_230_1_St edgeId_Shape195_219_1_St edgeId_Shape160_195_1_St edgeId_Shape125_160_1_St edgeId_Shape108_126_1_St edgeId_Shape071_109_1_St edgeId_Shape044_45_1_St edgeId_Shape301_301_1_St edgeId_Shape905_678_1_St edgeId_Shape829_868_1_St edgeId_Shape796_829_1_St edgeId_Shape679_796_1_St edgeId_Shape609_679_1_St "/>
	<trip id="27" depart="27.00" from="edgeId_Shape230_44_1_St" to="edgeId_Shape427_609_1_St" via="edgeId_Shape218_230_1_St edgeId_Shape195_219_1_St edgeId_Shape159_159_1_St edgeId_Shape125_160_1_St edgeId_Shape108_126_1_St edgeId_Shape071_109_1_St edgeId_Shape044_45_1_St edgeId_Shape301_301_1_St edgeId_Shape905_678_1_St edgeId_Shape829_868_1_St edgeId_Shape796_829_1_St edgeId_Shape679_796_1_St edgeId_Shape609_679_1_St "/>
	<trip id="28" depart="28.00" from="edgeId_Shape052_51_1_St" to="edgeId_Shape867_871_1_St" via="edgeId_Shape038_52_1_St edgeId_Shape031_37_1_St edgeId_Shape030_33_1_St edgeId_Shape310_310_1_St edgeId_Shape937_879_1_St edgeId_Shape909_934_1_St edgeId_Shape883_910_1_St edgeId_Shape882_883_1_St edgeId_Shape880_882_1_St edgeId_Shape870_880_1_St "/>
	<trip id="29" depart="29.00" from="edgeId_Shape063_62_1_St" to="edgeId_Shape062_63_1_St"/>
	<trip id="30" depart="30.00" from="edgeId_Shape065_65_1_St" to="edgeId_Shape066_66_1_St"/>
	<trip id="31" depart="31.00" from="edgeId_Shape212_72_1_St" to="edgeId_Shape418_419_1_St" via="edgeId_Shape196_213_1_St edgeId_Shape158_197_1_St edgeId_Shape073_125_1_St edgeId_Shape048_73_1_St edgeId_Shape043_49_1_St edgeId_Shape302_302_1_St edgeId_Shape943_418_1_St edgeId_Shape856_865_1_St edgeId_Shape798_856_1_St edgeId_Shape764_798_1_St edgeId_Shape715_765_1_St edgeId_Shape682_716_1_St edgeId_Shape565_427_1_St edgeId_Shape431_566_1_St edgeId_Shape420_430_1_St "/>
	<trip id="32" depart="32.00" from="edgeId_Shape087_85_1_St" to="edgeId_Shape086_86_1_St" via="edgeId_Shape085_87_1_St "/>
	<trip id="33" depart="33.00" from="edgeId_Shape087_85_1_St" to="edgeId_Shape061_61_1_St" via="edgeId_Shape088_3_1_St edgeId_Shape046_90_1_St edgeId_Shape025_46_1_St edgeId_Shape024_22_1_St edgeId_Shape017_34_1_St edgeId_Shape020_298_1_St edgeId_Shape059_59_1_St "/>
	<trip id="34" depart="34.00" from="edgeId_Shape087_85_1_St" to="edgeId_Shape086_86_1_St" via="edgeId_Shape088_3_1_St edgeId_Shape046_90_1_St edgeId_Shape025_46_1_St edgeId_Shape005_17_1_St edgeId_Shape006_6_1_St edgeId_Shape008_8_1_St edgeId_Shape315_315_1_St edgeId_Shape886_875_1_St edgeId_Shape887_887_1_St edgeId_Shape904_13_1_St edgeId_Shape309_904_1_St edgeId_Shape295_309_1_St edgeId_Shape021_295_1_St edgeId_Shape023_23_1_St edgeId_Shape056_56_1_St edgeId_Shape076_76_1_St edgeId_Shape079_79_1_St "/>
	<trip id="35" depart="35.00" from="edgeId_Shape087_85_1_St" to="edgeId_Shape001_299_1_St" via="edgeId_Shape088_3_1_St edgeId_Shape046_90_1_St edgeId_Shape025_46_1_St edgeId_Shape005_17_1_St edgeId_Shape004_5_1_St edgeId_Shape002_4_1_St "/>
	<trip id="36" depart="36.00" from="edgeId_Shape153_88_1_St" to="edgeId_Shape148_149_1_St" via="edgeId_Shape149_154_1_St "/>
	<trip id="37" depart="37.00" from="edgeId_Shape153_88_1_St" to="edgeId_Shape118_118_1_St" via="edgeId_Shape149_154_1_St edgeId_Shape127_148_1_St edgeId_Shape122_130_1_St edgeId_Shape117_122_1_St "/>
	<trip id="38" depart="38.00" from="edgeId_Shape153_88_1_St" to="edgeId_Shape001_299_1_St" via="edgeId_Shape149_154_1_St edgeId_Shape127_148_1_St edgeId_Shape122_130_1_St edgeId_Shape105_114_1_St edgeId_Shape089_105_1_St edgeId_Shape046_90_1_St edgeId_Shape025_46_1_St edgeId_Shape005_17_1_St edgeId_Shape004_5_1_St edgeId_Shape002_4_1_St "/>
	<trip id="39" depart="39.00" from="edgeId_Shape093_93_1_St" to="edgeId_Shape093_93_1_St"/>
	<trip id="40" depart="40.00" from="edgeId_Shape094_94_1_St" to="edgeId_Shape094_94_1_St"/>
	<trip id="41" depart="41.00" from="edgeId_Shape095_95_1_St" to="edgeId_Shape001_299_1_St" via="edgeId_Shape096_96_1_St edgeId_Shape097_98_1_St edgeId_Shape121_121_1_St edgeId_Shape157_157_1_St edgeId_Shape165_165_1_St edgeId_Shape169_91_1_St edgeId_Shape152_171_1_St edgeId_Shape145_152_1_St edgeId_Shape129_145_1_St edgeId_Shape122_130_1_St edgeId_Shape105_114_1_St edgeId_Shape089_105_1_St edgeId_Shape046_90_1_St edgeId_Shape025_46_1_St edgeId_Shape005_17_1_St edgeId_Shape004_5_1_St edgeId_Shape002_4_1_St "/>
	<trip id="42" depart="42.00" from="edgeId_Shape095_95_1_St" to="edgeId_Shape166_167_1_St" via="edgeId_Shape096_96_1_St edgeId_Shape097_98_1_St edgeId_Shape120_120_1_St edgeId_Shape136_136_1_St edgeId_Shape137_137_1_St edgeId_Shape150_150_1_St edgeId_Shape163_163_1_St "/>
	<trip id="43" depart="43.00" from="edgeId_Shape095_95_1_St" to="edgeId_Shape143_143_1_St" via="edgeId_Shape096_96_1_St edgeId_Shape097_98_1_St edgeId_Shape120_120_1_St edgeId_Shape135_135_1_St edgeId_Shape139_127_1_St "/>
	<trip id="44" depart="44.00" from="edgeId_Shape095_95_1_St" to="edgeId_Shape001_299_1_St" via="edgeId_Shape096_96_1_St edgeId_Shape097_98_1_St edgeId_Shape120_120_1_St edgeId_Shape135_135_1_St edgeId_Shape139_127_1_St edgeId_Shape128_139_1_St edgeId_Shape122_130_1_St edgeId_Shape105_114_1_St edgeId_Shape089_105_1_St edgeId_Shape046_90_1_St edgeId_Shape025_46_1_St edgeId_Shape005_17_1_St edgeId_Shape004_5_1_St edgeId_Shape002_4_1_St "/>
	<trip id="45" depart="45.00" from="edgeId_Shape101_100_1_St" to="edgeId_Shape100_101_1_St"/>
	<trip id="46" depart="46.00" from="edgeId_Shape103_102_1_St" to="edgeId_Shape102_103_1_St"/>
	<trip id="47" depart="47.00" from="edgeId_Shape114_104_1_St" to="edgeId_Shape104_116_1_St"/>
	<trip id="48" depart="48.00" from="edgeId_Shape106_106_1_St" to="edgeId_Shape209_209_1_St" via="edgeId_Shape107_107_1_St edgeId_Shape123_123_1_St edgeId_Shape146_147_1_St edgeId_Shape150_150_1_St edgeId_Shape162_162_1_St edgeId_Shape176_178_1_St edgeId_Shape199_199_1_St edgeId_Shape200_201_1_St "/>
	<trip id="49" depart="49.00" from="edgeId_Shape106_106_1_St" to="edgeId_Shape198_198_1_St" via="edgeId_Shape107_107_1_St edgeId_Shape123_123_1_St edgeId_Shape146_147_1_St edgeId_Shape150_150_1_St edgeId_Shape162_162_1_St edgeId_Shape176_178_1_St "/>
	<trip id="50" depart="50.00" from="edgeId_Shape236_108_1_St" to="edgeId_Shape237_237_1_St"/>
	<trip id="51" depart="51.00" from="edgeId_Shape236_108_1_St" to="edgeId_Shape228_228_1_St" via="edgeId_Shape222_236_1_St edgeId_Shape217_222_1_St edgeId_Shape202_217_1_St edgeId_Shape190_202_1_St edgeId_Shape184_190_1_St edgeId_Shape182_185_1_St edgeId_Shape180_182_1_St "/>
	<trip id="52" depart="52.00" from="edgeId_Shape236_108_1_St" to="edgeId_Shape427_609_1_St" via="edgeId_Shape222_236_1_St edgeId_Shape109_216_1_St edgeId_Shape071_109_1_St edgeId_Shape044_45_1_St edgeId_Shape301_301_1_St edgeId_Shape905_678_1_St edgeId_Shape829_868_1_St edgeId_Shape796_829_1_St edgeId_Shape679_796_1_St edgeId_Shape609_679_1_St "/>
	<trip id="53" depart="53.00" from="edgeId_Shape116_115_1_St" to="edgeId_Shape104_116_1_St"/>
	<trip id="54" depart="54.00" from="edgeId_Shape130_129_1_St" to="edgeId_Shape001_299_1_St" via="edgeId_Shape122_130_1_St edgeId_Shape105_114_1_St edgeId_Shape089_105_1_St edgeId_Shape046_90_1_St edgeId_Shape025_46_1_St edgeId_Shape005_17_1_St edgeId_Shape004_5_1_St edgeId_Shape002_4_1_St "/>
	<trip id="55" depart="55.00" from="edgeId_Shape131_131_1_St" to="edgeId_Shape131_131_1_St"/>
	<trip id="56" depart="56.00" from="edgeId_Shape133_132_1_St" to="edgeId_Shape198_198_1_St" via="edgeId_Shape134_134_1_St edgeId_Shape137_137_1_St edgeId_Shape150_150_1_St edgeId_Shape162_162_1_St edgeId_Shape176_178_1_St "/>
	<trip id="57" depart="57.00" from="edgeId_Shape133_132_1_St" to="edgeId_Shape132_133_1_St"/>
	<trip id="58" depart="58.00" from="edgeId_Shape138_138_1_St" to="edgeId_Shape001_299_1_St" via="edgeId_Shape139_127_1_St edgeId_Shape128_139_1_St edgeId_Shape122_130_1_St edgeId_Shape105_114_1_St edgeId_Shape089_105_1_St edgeId_Shape046_90_1_St edgeId_Shape025_46_1_St edgeId_Shape005_17_1_St edgeId_Shape004_5_1_St edgeId_Shape002_4_1_St "/>
	<trip id="59" depart="59.00" from="edgeId_Shape142_142_1_St" to="edgeId_Shape144_144_1_St"/>
	<trip id="60" depart="60.00" from="edgeId_Shape147_146_1_St" to="edgeId_Shape198_198_1_St" via="edgeId_Shape146_147_1_St edgeId_Shape150_150_1_St edgeId_Shape162_162_1_St edgeId_Shape176_178_1_St "/>
	<trip id="61" depart="61.00" from="edgeId_Shape172_153_1_St" to="edgeId_Shape155_156_1_St" via="edgeId_Shape156_174_1_St "/>
	<trip id="62" depart="62.00" from="edgeId_Shape172_153_1_St" to="edgeId_Shape001_299_1_St" via="edgeId_Shape156_174_1_St edgeId_Shape154_155_1_St edgeId_Shape149_154_1_St edgeId_Shape127_148_1_St edgeId_Shape122_130_1_St edgeId_Shape105_114_1_St edgeId_Shape089_105_1_St edgeId_Shape046_90_1_St edgeId_Shape025_46_1_St edgeId_Shape005_17_1_St edgeId_Shape004_5_1_St edgeId_Shape002_4_1_St "/>
	<trip id="63" depart="63.00" from="edgeId_Shape170_166_1_St" to="edgeId_Shape166_167_1_St" via="edgeId_Shape167_170_1_St "/>
	<trip id="64" depart="64.00" from="edgeId_Shape168_168_1_St" to="edgeId_Shape168_168_1_St"/>
	<trip id="65" depart="65.00" from="edgeId_Shape171_169_1_St" to="edgeId_Shape001_299_1_St" via="edgeId_Shape152_171_1_St edgeId_Shape112_128_1_St edgeId_Shape098_112_1_St edgeId_Shape097_98_1_St edgeId_Shape120_120_1_St edgeId_Shape135_135_1_St edgeId_Shape139_127_1_St edgeId_Shape128_139_1_St edgeId_Shape122_130_1_St edgeId_Shape105_114_1_St edgeId_Shape089_105_1_St edgeId_Shape046_90_1_St edgeId_Shape025_46_1_St edgeId_Shape005_17_1_St edgeId_Shape004_5_1_St edgeId_Shape002_4_1_St "/>
	<trip id="66" depart="66.00" from="edgeId_Shape171_169_1_St" to="edgeId_Shape418_419_1_St" via="edgeId_Shape152_171_1_St edgeId_Shape112_128_1_St edgeId_Shape092_97_1_St edgeId_Shape072_92_1_St edgeId_Shape048_73_1_St edgeId_Shape043_49_1_St edgeId_Shape302_302_1_St edgeId_Shape943_418_1_St edgeId_Shape856_865_1_St edgeId_Shape798_856_1_St edgeId_Shape764_798_1_St edgeId_Shape715_765_1_St edgeId_Shape682_716_1_St edgeId_Shape565_427_1_St edgeId_Shape431_566_1_St edgeId_Shape420_430_1_St "/>
	<trip id="67" depart="67.00" from="edgeId_Shape216_172_1_St" to="edgeId_Shape228_228_1_St" via="edgeId_Shape202_217_1_St edgeId_Shape192_181_1_St edgeId_Shape179_192_1_St edgeId_Shape180_182_1_St "/>
	<trip id="68" depart="68.00" from="edgeId_Shape216_172_1_St" to="edgeId_Shape001_299_1_St" via="edgeId_Shape202_217_1_St edgeId_Shape191_179_1_St edgeId_Shape173_191_1_St edgeId_Shape156_174_1_St edgeId_Shape154_155_1_St edgeId_Shape149_154_1_St edgeId_Shape127_148_1_St edgeId_Shape122_130_1_St edgeId_Shape105_114_1_St edgeId_Shape089_105_1_St edgeId_Shape046_90_1_St edgeId_Shape025_46_1_St edgeId_Shape005_17_1_St edgeId_Shape004_5_1_St edgeId_Shape002_4_1_St "/>
	<trip id="69" depart="69.00" from="edgeId_Shape183_173_1_St" to="edgeId_Shape001_299_1_St" via="edgeId_Shape174_183_1_St edgeId_Shape156_174_1_St edgeId_Shape154_155_1_St edgeId_Shape149_154_1_St edgeId_Shape127_148_1_St edgeId_Shape122_130_1_St edgeId_Shape105_114_1_St edgeId_Shape089_105_1_St edgeId_Shape046_90_1_St edgeId_Shape025_46_1_St edgeId_Shape005_17_1_St edgeId_Shape004_5_1_St edgeId_Shape002_4_1_St "/>
	<trip id="70" depart="70.00" from="edgeId_Shape175_175_1_St" to="edgeId_Shape235_235_1_St"/>
	<trip id="71" depart="71.00" from="edgeId_Shape177_176_1_St" to="edgeId_Shape198_198_1_St" via="edgeId_Shape176_178_1_St "/>
	<trip id="72" depart="72.00" from="edgeId_Shape178_177_1_St" to="edgeId_Shape198_198_1_St" via="edgeId_Shape176_178_1_St "/>
	<trip id="73" depart="73.00" from="edgeId_Shape185_184_1_St" to="edgeId_Shape228_228_1_St" via="edgeId_Shape182_185_1_St edgeId_Shape180_182_1_St "/>
	<trip id="74" depart="74.00" from="edgeId_Shape186_186_1_St" to="edgeId_Shape189_189_1_St"/>
	<trip id="75" depart="75.00" from="edgeId_Shape186_186_1_St" to="edgeId_Shape188_188_1_St"/>
	<trip id="76" depart="76.00" from="edgeId_Shape187_187_1_St" to="edgeId_Shape194_194_1_St"/>
	<trip id="77" depart="77.00" from="edgeId_Shape204_193_1_St" to="edgeId_Shape194_194_1_St" via="edgeId_Shape193_205_1_St "/>
	<trip id="78" depart="78.00" from="edgeId_Shape201_200_1_St" to="edgeId_Shape211_211_1_St" via="edgeId_Shape200_201_1_St edgeId_Shape208_208_1_St "/>
	<trip id="79" depart="79.00" from="edgeId_Shape201_200_1_St" to="edgeId_Shape210_210_1_St" via="edgeId_Shape200_201_1_St edgeId_Shape208_208_1_St "/>
	<trip id="80" depart="80.00" from="edgeId_Shape206_204_1_St" to="edgeId_Shape207_207_1_St"/>
	<trip id="81" depart="81.00" from="edgeId_Shape206_204_1_St" to="edgeId_Shape194_194_1_St" via="edgeId_Shape205_206_1_St edgeId_Shape193_205_1_St "/>
	<trip id="82" depart="82.00" from="edgeId_Shape213_212_1_St" to="edgeId_Shape418_419_1_St" via="edgeId_Shape196_213_1_St edgeId_Shape158_197_1_St edgeId_Shape073_125_1_St edgeId_Shape048_73_1_St edgeId_Shape043_49_1_St edgeId_Shape302_302_1_St edgeId_Shape943_418_1_St edgeId_Shape856_865_1_St edgeId_Shape798_856_1_St edgeId_Shape764_798_1_St edgeId_Shape715_765_1_St edgeId_Shape682_716_1_St edgeId_Shape565_427_1_St edgeId_Shape431_566_1_St edgeId_Shape420_430_1_St "/>
	<trip id="83" depart="83.00" from="edgeId_Shape241_218_1_St" to="edgeId_Shape234_234_1_St" via="edgeId_Shape233_241_1_St "/>
	<trip id="84" depart="84.00" from="edgeId_Shape241_218_1_St" to="edgeId_Shape427_609_1_St" via="edgeId_Shape219_233_1_St edgeId_Shape195_219_1_St edgeId_Shape159_159_1_St edgeId_Shape125_160_1_St edgeId_Shape108_126_1_St edgeId_Shape071_109_1_St edgeId_Shape044_45_1_St edgeId_Shape301_301_1_St edgeId_Shape905_678_1_St edgeId_Shape829_868_1_St edgeId_Shape796_829_1_St edgeId_Shape679_796_1_St edgeId_Shape609_679_1_St "/>
	<trip id="85" depart="85.00" from="edgeId_Shape223_223_1_St" to="edgeId_Shape227_227_1_St" via="edgeId_Shape224_225_1_St "/>
	<trip id="86" depart="86.00" from="edgeId_Shape223_223_1_St" to="edgeId_Shape228_228_1_St" via="edgeId_Shape224_225_1_St edgeId_Shape226_226_1_St "/>
	<trip id="87" depart="87.00" from="edgeId_Shape225_224_1_St" to="edgeId_Shape228_228_1_St" via="edgeId_Shape224_225_1_St edgeId_Shape226_226_1_St "/>
	<trip id="88" depart="88.00" from="edgeId_Shape229_229_1_St" to="edgeId_Shape229_229_1_St"/>
	<trip id="89" depart="89.00" from="edgeId_Shape245_244_1_St" to="edgeId_Shape244_245_1_St"/>
	<trip id="90" depart="90.00" from="edgeId_Shape246_246_1_St" to="edgeId_Shape246_246_1_St"/>
	<trip id="91" depart="91.00" from="edgeId_Shape247_247_1_St" to="edgeId_Shape247_247_1_St"/>
	<trip id="92" depart="92.00" from="edgeId_Shape248_248_1_St" to="edgeId_Shape248_248_1_St"/>
	<trip id="93" depart="93.00" from="edgeId_Shape249_249_1_St" to="edgeId_Shape249_249_1_St"/>
	<trip id="94" depart="94.00" from="edgeId_Shape289_250_1_St" to="edgeId_Shape252_253_1_St" via="edgeId_Shape255_289_1_St edgeId_Shape251_255_1_St "/>
	<trip id="95" depart="95.00" from="edgeId_Shape289_250_1_St" to="edgeId_Shape250_251_1_St" via="edgeId_Shape255_289_1_St "/>
	<trip id="96" depart="96.00" from="edgeId_Shape273_252_1_St" to="edgeId_Shape274_274_1_St" via="edgeId_Shape272_273_1_St "/>
	<trip id="97" depart="97.00" from="edgeId_Shape273_252_1_St" to="edgeId_Shape252_253_1_St" via="edgeId_Shape262_272_1_St edgeId_Shape258_262_1_St edgeId_Shape253_259_1_St "/>
	<trip id="98" depart="98.00" from="edgeId_Shape288_257_1_St" to="edgeId_Shape287_287_1_St" via="edgeId_Shape286_288_1_St "/>
	<trip id="99" depart="99.00" from="edgeId_Shape288_257_1_St" to="edgeId_Shape257_261_1_St" via="edgeId_Shape260_286_1_St "/>
	<trip id="100" depart="100.00" from="edgeId_Shape259_258_1_St" to="edgeId_Shape252_253_1_St" via="edgeId_Shape253_259_1_St "/>
	<trip id="101" depart="101.00" from="edgeId_Shape264_260_1_St" to="edgeId_Shape263_264_1_St"/>
	<trip id="102" depart="102.00" from="edgeId_Shape264_260_1_St" to="edgeId_Shape257_261_1_St" via="edgeId_Shape261_263_1_St "/>
	<trip id="103" depart="103.00" from="edgeId_Shape265_265_1_St" to="edgeId_Shape269_269_1_St" via="edgeId_Shape267_267_1_St "/>
	<trip id="104" depart="104.00" from="edgeId_Shape265_265_1_St" to="edgeId_Shape271_271_1_St" via="edgeId_Shape266_266_1_St edgeId_Shape268_268_1_St "/>
	<trip id="105" depart="105.00" from="edgeId_Shape270_270_1_St" to="edgeId_Shape271_271_1_St"/>
	<trip id="106" depart="106.00" from="edgeId_Shape277_275_1_St" to="edgeId_Shape276_277_1_St"/>
	<trip id="107" depart="107.00" from="edgeId_Shape277_275_1_St" to="edgeId_Shape282_282_1_St" via="edgeId_Shape275_276_1_St edgeId_Shape278_278_1_St edgeId_Shape280_280_1_St "/>
	<trip id="108" depart="108.00" from="edgeId_Shape277_275_1_St" to="edgeId_Shape287_287_1_St" via="edgeId_Shape275_276_1_St edgeId_Shape278_278_1_St edgeId_Shape280_280_1_St edgeId_Shape281_281_1_St edgeId_Shape283_283_1_St edgeId_Shape284_285_1_St "/>
	<trip id="109" depart="109.00" from="edgeId_Shape279_279_1_St" to="edgeId_Shape287_287_1_St" via="edgeId_Shape280_280_1_St edgeId_Shape281_281_1_St edgeId_Shape283_283_1_St edgeId_Shape284_285_1_St "/>
	<trip id="110" depart="110.00" from="edgeId_Shape285_284_1_St" to="edgeId_Shape287_287_1_St" via="edgeId_Shape284_285_1_St "/>
	<trip id="111" depart="111.00" from="edgeId_Shape337_318_1_St" to="edgeId_Shape336_336_1_St" via="edgeId_Shape335_338_1_St "/>
	<trip id="112" depart="112.00" from="edgeId_Shape337_318_1_St" to="edgeId_Shape331_332_1_St" via="edgeId_Shape335_338_1_St edgeId_Shape333_335_1_St edgeId_Shape332_334_1_St "/>
	<trip id="113" depart="113.00" from="edgeId_Shape337_318_1_St" to="edgeId_Shape327_328_1_St" via="edgeId_Shape335_338_1_St edgeId_Shape333_335_1_St edgeId_Shape332_334_1_St edgeId_Shape329_331_1_St edgeId_Shape328_330_1_St "/>
	<trip id="114" depart="114.00" from="edgeId_Shape337_318_1_St" to="edgeId_Shape324_324_1_St" via="edgeId_Shape335_338_1_St edgeId_Shape333_335_1_St edgeId_Shape332_334_1_St edgeId_Shape329_331_1_St edgeId_Shape328_330_1_St edgeId_Shape325_327_1_St edgeId_Shape323_326_1_St "/>
	<trip id="115" depart="115.00" from="edgeId_Shape337_318_1_St" to="edgeId_Shape319_320_1_St" via="edgeId_Shape335_338_1_St edgeId_Shape333_335_1_St edgeId_Shape332_334_1_St edgeId_Shape329_331_1_St edgeId_Shape328_330_1_St edgeId_Shape325_327_1_St edgeId_Shape323_326_1_St edgeId_Shape321_323_1_St edgeId_Shape320_322_1_St "/>
	<trip id="116" depart="116.00" from="edgeId_Shape337_318_1_St" to="edgeId_Shape318_319_1_St" via="edgeId_Shape335_338_1_St edgeId_Shape333_335_1_St edgeId_Shape332_334_1_St edgeId_Shape329_331_1_St edgeId_Shape328_330_1_St edgeId_Shape325_327_1_St edgeId_Shape323_326_1_St edgeId_Shape321_323_1_St edgeId_Shape320_322_1_St "/>
	<trip id="117" depart="117.00" from="edgeId_Shape322_321_1_St" to="edgeId_Shape318_319_1_St" via="edgeId_Shape320_322_1_St "/>
	<trip id="118" depart="118.00" from="edgeId_Shape326_325_1_St" to="edgeId_Shape318_319_1_St" via="edgeId_Shape323_326_1_St edgeId_Shape321_323_1_St edgeId_Shape320_322_1_St "/>
	<trip id="119" depart="119.00" from="edgeId_Shape330_329_1_St" to="edgeId_Shape318_319_1_St" via="edgeId_Shape328_330_1_St edgeId_Shape325_327_1_St edgeId_Shape323_326_1_St edgeId_Shape321_323_1_St edgeId_Shape320_322_1_St "/>
	<trip id="120" depart="120.00" from="edgeId_Shape334_333_1_St" to="edgeId_Shape318_319_1_St" via="edgeId_Shape332_334_1_St edgeId_Shape329_331_1_St edgeId_Shape328_330_1_St edgeId_Shape325_327_1_St edgeId_Shape323_326_1_St edgeId_Shape321_323_1_St edgeId_Shape320_322_1_St "/>
	<trip id="121" depart="121.00" from="edgeId_Shape452_337_1_St" to="edgeId_Shape414_414_1_St" via="edgeId_Shape415_452_1_St edgeId_Shape407_415_1_St edgeId_Shape404_407_1_St edgeId_Shape406_406_1_St "/>
	<trip id="122" depart="122.00" from="edgeId_Shape452_337_1_St" to="edgeId_Shape403_403_1_St" via="edgeId_Shape415_452_1_St edgeId_Shape408_404_1_St edgeId_Shape400_408_1_St edgeId_Shape401_401_1_St "/>
	<trip id="123" depart="123.00" from="edgeId_Shape452_337_1_St" to="edgeId_Shape346_347_1_St" via="edgeId_Shape415_452_1_St edgeId_Shape408_404_1_St edgeId_Shape397_400_1_St edgeId_Shape366_397_1_St edgeId_Shape344_366_1_St edgeId_Shape343_345_1_St "/>
	<trip id="124" depart="124.00" from="edgeId_Shape452_337_1_St" to="edgeId_Shape318_319_1_St" via="edgeId_Shape415_452_1_St edgeId_Shape408_404_1_St edgeId_Shape397_400_1_St edgeId_Shape342_343_1_St edgeId_Shape338_342_1_St edgeId_Shape335_338_1_St edgeId_Shape333_335_1_St edgeId_Shape332_334_1_St edgeId_Shape329_331_1_St edgeId_Shape328_330_1_St edgeId_Shape325_327_1_St edgeId_Shape323_326_1_St edgeId_Shape321_323_1_St edgeId_Shape320_322_1_St "/>
	<trip id="125" depart="125.00" from="edgeId_Shape339_339_1_St" to="edgeId_Shape466_466_1_St" via="edgeId_Shape341_341_1_St edgeId_Shape395_395_1_St "/>
	<trip id="126" depart="126.00" from="edgeId_Shape377_346_1_St" to="edgeId_Shape221_221_1_St" via="edgeId_Shape376_377_1_St edgeId_Shape378_379_1_St edgeId_Shape381_381_1_St edgeId_Shape610_610_1_St edgeId_Shape681_681_1_St edgeId_Shape736_736_1_St edgeId_Shape745_745_1_St edgeId_Shape753_753_1_St edgeId_Shape767_767_1_St edgeId_Shape833_833_1_St edgeId_Shape940_74_1_St edgeId_Shape306_940_1_St edgeId_Shape292_306_1_St edgeId_Shape075_292_1_St edgeId_Shape161_161_1_St "/>
	<trip id="127" depart="127.00" from="edgeId_Shape377_346_1_St" to="edgeId_Shape353_354_1_St" via="edgeId_Shape375_376_1_St edgeId_Shape374_375_1_St edgeId_Shape493_493_1_St edgeId_Shape498_498_1_St edgeId_Shape522_522_1_St edgeId_Shape532_531_1_St edgeId_Shape524_533_1_St edgeId_Shape510_524_1_St edgeId_Shape485_510_1_St edgeId_Shape356_485_1_St edgeId_Shape355_356_1_St edgeId_Shape354_355_1_St "/>
	<trip id="128" depart="128.00" from="edgeId_Shape377_346_1_St" to="edgeId_Shape360_363_1_St" via="edgeId_Shape375_376_1_St edgeId_Shape373_374_1_St edgeId_Shape372_373_1_St edgeId_Shape370_372_1_St edgeId_Shape363_370_1_St "/>
	<trip id="129" depart="129.00" from="edgeId_Shape377_346_1_St" to="edgeId_Shape346_347_1_St" via="edgeId_Shape375_376_1_St edgeId_Shape373_374_1_St edgeId_Shape347_369_1_St "/>
	<trip id="130" depart="130.00" from="edgeId_Shape484_353_1_St" to="edgeId_Shape353_354_1_St" via="edgeId_Shape356_485_1_St edgeId_Shape355_356_1_St edgeId_Shape354_355_1_St "/>
	<trip id="131" depart="131.00" from="edgeId_Shape371_358_1_St" to="edgeId_Shape359_359_1_St" via="edgeId_Shape367_371_1_St edgeId_Shape362_368_1_St edgeId_Shape358_362_1_St "/>
	<trip id="132" depart="132.00" from="edgeId_Shape457_360_1_St" to="edgeId_Shape360_363_1_St" via="edgeId_Shape453_457_1_St edgeId_Shape409_454_1_St edgeId_Shape369_409_1_St edgeId_Shape363_370_1_St "/>
	<trip id="133" depart="133.00" from="edgeId_Shape361_361_1_St" to="edgeId_Shape461_463_1_St" via="edgeId_Shape364_364_1_St edgeId_Shape396_396_1_St edgeId_Shape417_417_1_St edgeId_Shape451_451_1_St "/>