<?xml version="1.0" encoding="UTF-8"?>

<!-- generated on 2022-05-31 17:03:53 by Eclipse SUMO netedit Version 1.13.0
<configuration xmlns:xsi="http://www.w3.org/2001/XMLSchema-instance" xsi:noNamespaceSchemaLocation="http://sumo.dlr.de/xsd/netconvertConfiguration.xsd">

    <input>
        <sumo-net-file value="C:\Users\user\Desktop\new%20xml%20files\SplineXMLForSUMOTrafficLanes.net.xml"/>
    </input>

    <output>
        <output-file value="C:\Users\user\Desktop\new%20xml%20files\SplineXMLForSUMOTrafficLanes.net.xml"/>
    </output>

    <processing>
        <geometry.min-radius.fix.railways value="false"/>
        <geometry.max-grade.fix value="false"/>
        <offset.disable-normalization value="true"/>
        <lefthand value="false"/>
    </processing>

    <junctions>
        <no-internal-links value="true"/>
        <no-turnarounds value="true"/>
        <junctions.corner-detail value="5"/>
        <junctions.limit-turn-speed value="5.5"/>
        <rectangular-lane-cut value="false"/>
    </junctions>

    <pedestrian>
        <walkingareas value="false"/>
    </pedestrian>

    <report>
        <aggregate-warnings value="5"/>
    </report>

</configuration>
-->

<net version="1.9" junctionCornerDetail="5" limitTurnSpeed="5.50" xmlns:xsi="http://www.w3.org/2001/XMLSchema-instance" xsi:noNamespaceSchemaLocation="http://sumo.dlr.de/xsd/net_file.xsd">

    <location netOffset="-274535.29,-4297431.43" convBoundary="-4324.44,-1678.42,16438.20,927.95" origBoundary="-77.596256,38.797200,-77.215237,38.890060" projParameter="+proj=utm +zone=18 +ellps=WGS84 +datum=WGS84 +units=m +no_defs"/>

    <type id="highway.bridleway" priority="1" numLanes="1" speed="2.78" allow="pedestrian" oneway="1" width="2.00"/>
    <type id="highway.bus_guideway" priority="1" numLanes="1" speed="27.78" allow="bus" oneway="1"/>
    <type id="highway.cycleway" priority="1" numLanes="1" speed="8.33" allow="bicycle" oneway="0" width="1.00"/>
    <type id="highway.footway" priority="1" numLanes="1" speed="2.78" allow="pedestrian" oneway="1" width="2.00"/>
    <type id="highway.ford" priority="1" numLanes="1" speed="2.78" allow="army" oneway="0"/>
    <type id="highway.living_street" priority="2" numLanes="1" speed="2.78" disallow="tram rail_urban rail rail_electric rail_fast ship" oneway="0"/>
    <type id="highway.motorway" priority="14" numLanes="2" speed="39.44" allow="private emergency authority army vip passenger hov taxi bus coach delivery truck trailer motorcycle evehicle custom1 custom2" oneway="1"/>
    <type id="highway.motorway_link" priority="9" numLanes="1" speed="22.22" allow="private emergency authority army vip passenger hov taxi bus coach delivery truck trailer motorcycle evehicle custom1 custom2" oneway="1"/>
    <type id="highway.path" priority="1" numLanes="1" speed="2.78" allow="pedestrian bicycle" oneway="0" width="2.00"/>
    <type id="highway.pedestrian" priority="1" numLanes="1" speed="2.78" allow="pedestrian" oneway="1" width="2.00"/>
    <type id="highway.primary" priority="12" numLanes="2" speed="27.78" disallow="tram rail_urban rail rail_electric rail_fast ship" oneway="0"/>
    <type id="highway.primary_link" priority="7" numLanes="1" speed="22.22" disallow="tram rail_urban rail rail_electric rail_fast ship" oneway="0"/>
    <type id="highway.raceway" priority="15" numLanes="2" speed="83.33" allow="vip" oneway="0"/>
    <type id="highway.residential" priority="3" numLanes="1" speed="13.89" disallow="tram rail_urban rail rail_electric rail_fast ship" oneway="0"/>
    <type id="highway.secondary" priority="11" numLanes="1" speed="27.78" disallow="tram rail_urban rail rail_electric rail_fast ship" oneway="0"/>
    <type id="highway.secondary_link" priority="6" numLanes="1" speed="22.22" disallow="tram rail_urban rail rail_electric rail_fast ship" oneway="0"/>
    <type id="highway.service" priority="1" numLanes="1" speed="5.56" allow="pedestrian delivery bicycle" oneway="0"/>
    <type id="highway.stairs" priority="1" numLanes="1" speed="1.39" allow="pedestrian" oneway="1" width="2.00"/>
    <type id="highway.step" priority="1" numLanes="1" speed="1.39" allow="pedestrian" oneway="1" width="2.00"/>
    <type id="highway.steps" priority="1" numLanes="1" speed="1.39" allow="pedestrian" oneway="1" width="2.00"/>
    <type id="highway.tertiary" priority="10" numLanes="1" speed="22.22" disallow="tram rail_urban rail rail_electric rail_fast ship" oneway="0"/>
    <type id="highway.tertiary_link" priority="5" numLanes="1" speed="22.22" disallow="tram rail_urban rail rail_electric rail_fast ship" oneway="0"/>
    <type id="highway.track" priority="1" numLanes="1" speed="5.56" allow="pedestrian motorcycle moped bicycle" oneway="0"/>
    <type id="highway.trunk" priority="13" numLanes="2" speed="27.78" disallow="pedestrian bicycle tram rail_urban rail rail_electric rail_fast ship" oneway="0"/>
    <type id="highway.trunk_link" priority="8" numLanes="1" speed="22.22" disallow="pedestrian bicycle tram rail_urban rail rail_electric rail_fast ship" oneway="0"/>
    <type id="highway.unclassified" priority="4" numLanes="1" speed="13.89" disallow="tram rail_urban rail rail_electric rail_fast ship" oneway="0"/>
    <type id="highway.unsurfaced" priority="1" numLanes="1" speed="8.33" disallow="tram rail_urban rail rail_electric rail_fast ship" oneway="0"/>
    <type id="railway.highspeed" priority="21" numLanes="1" speed="69.44" allow="rail_fast" oneway="1"/>
    <type id="railway.light_rail" priority="19" numLanes="1" speed="27.78" allow="rail_urban" oneway="1"/>
    <type id="railway.preserved" priority="16" numLanes="1" speed="27.78" allow="rail" oneway="1"/>
    <type id="railway.rail" priority="20" numLanes="1" speed="44.44" allow="rail" oneway="1"/>
    <type id="railway.subway" priority="18" numLanes="1" speed="27.78" allow="rail_urban" oneway="1"/>
    <type id="railway.tram" priority="17" numLanes="1" speed="13.89" allow="tram" oneway="1"/>

    <edge id="edgeId_Shape001_299_1_St" from="JuctionTo_Shape002_4_1_Ed-JuctionFrom_Shape001_299_1_St-JuctionTo_Shape299_316_1_Ed" to="JuctionTo_Shape001_299_1_Ed" priority="14" type="highway.motorway" spreadType="center" shape="3461.17,125.72,-23.42 3461.14,130.72,-23.42 3461.11,135.72,-23.42 3461.09,140.72,-23.42 3461.06,145.72,-23.42 3461.03,150.72,-23.42 3461.01,155.72,-23.42 3461.00,157.06,-23.42">
        <lane id="edgeId_Shape001_299_1_St_0" index="0" allow="private emergency authority army vip passenger hov taxi bus coach delivery truck trailer motorcycle evehicle custom1 custom2" speed="18.06" length="31.34" shape="3461.16,127.53,-23.42 3461.14,130.72,-23.42 3461.11,135.72,-23.42 3461.09,140.72,-23.42 3461.06,145.72,-23.42 3461.03,150.72,-23.42 3461.01,155.72,-23.42 3461.00,157.06,-23.42"/>
    </edge>
    <edge id="edgeId_Shape002_4_1_St" from="JuctionTo_Shape003_1_1_Ed-JuctionFrom_Shape002_4_1_St-JuctionTo_Shape004_5_1_Ed" to="JuctionTo_Shape002_4_1_Ed-JuctionFrom_Shape001_299_1_St-JuctionTo_Shape299_316_1_Ed" priority="14" type="highway.motorway" spreadType="center" shape="3462.83,20.56,-23.42 3462.79,25.56,-23.42 3462.76,30.56,-23.42 3462.72,35.56,-23.42 3462.69,40.56,-23.42 3462.66,45.56,-23.42 3462.64,50.56,-23.42 3462.62,55.56,-23.42 3462.61,60.56,-23.42 3462.59,65.56,-23.42 3462.57,70.56,-23.42 3462.55,75.56,-23.42 3462.54,80.56,-23.42 3462.52,85.56,-23.42 3462.44,90.55,-23.42 3462.26,95.55,-23.42 3462.08,100.55,-23.42 3461.90,105.55,-23.42 3461.72,110.54,-23.42 3461.54,115.54,-23.42 3461.36,120.53,-23.42 3461.17,125.72,-23.42">
        <lane id="edgeId_Shape002_4_1_St_0" index="0" allow="private emergency authority army vip passenger hov taxi bus coach delivery truck trailer motorcycle evehicle custom1 custom2" speed="18.06" length="105.18" shape="3462.82,22.28,-23.42 3462.79,25.56,-23.42 3462.76,30.56,-23.42 3462.72,35.56,-23.42 3462.69,40.56,-23.42 3462.66,45.56,-23.42 3462.64,50.56,-23.42 3462.62,55.56,-23.42 3462.61,60.56,-23.42 3462.59,65.56,-23.42 3462.57,70.56,-23.42 3462.55,75.56,-23.42 3462.54,80.56,-23.42 3462.52,85.56,-23.42 3462.44,90.55,-23.42 3462.26,95.55,-23.42 3462.08,100.55,-23.42 3461.90,105.55,-23.42 3461.72,110.54,-23.42 3461.54,115.54,-23.42 3461.45,117.91,-23.42"/>
    </edge>
    <edge id="edgeId_Shape003_1_1_St" from="JuctionFrom_Shape003_1_1_St" to="JuctionTo_Shape003_1_1_Ed-JuctionFrom_Shape002_4_1_St-JuctionTo_Shape004_5_1_Ed" priority="14" type="highway.motorway" spreadType="center" shape="3463.14,-34.44,-23.42 3463.20,-29.44,-23.42 3463.26,-24.44,-23.42 3463.29,-19.44,-23.42 3463.24,-14.44,-23.42 3463.19,-9.44,-23.42 3463.15,-4.44,-23.42 3463.08,0.56,-23.42 3463.02,5.56,-23.42 3462.95,10.56,-23.42 3462.89,15.56,-23.42 3462.83,20.56,-23.42">
        <lane id="edgeId_Shape003_1_1_St_0" index="0" allow="private emergency authority army vip passenger hov taxi bus coach delivery truck trailer motorcycle evehicle custom1 custom2" speed="18.06" length="55.00" shape="3463.14,-34.44,-23.42 3463.20,-29.44,-23.42 3463.26,-24.44,-23.42 3463.29,-19.44,-23.42 3463.24,-14.44,-23.42 3463.19,-9.44,-23.42 3463.15,-4.44,-23.42 3463.08,0.56,-23.42 3463.02,5.56,-23.42 3462.95,10.31,-23.42"/>
    </edge>
    <edge id="edgeId_Shape004_5_1_St" from="JuctionFrom_Shape004_5_1_St-JuctionFrom_Shape006_6_1_St-JuctionTo_Shape005_17_1_Ed" to="JuctionTo_Shape003_1_1_Ed-JuctionFrom_Shape002_4_1_St-JuctionTo_Shape004_5_1_Ed" priority="14" type="highway.motorway" spreadType="center" shape="3425.12,4.70,-23.42 3430.12,4.84,-23.42 3435.11,5.04,-23.42 3440.11,5.23,-23.42 3445.09,5.61,-23.42 3450.05,6.27,-23.42 3454.85,7.61,-23.42 3458.79,10.62,-23.42 3461.32,14.91,-23.42 3462.83,20.56,-23.42">
        <lane id="edgeId_Shape004_5_1_St_0" index="0" allow="private emergency authority army vip passenger hov taxi bus coach delivery truck trailer motorcycle evehicle custom1 custom2" speed="18.06" length="45.67" shape="3426.64,4.74,-23.42 3430.12,4.84,-23.42 3435.11,5.04,-23.42 3440.11,5.23,-23.42 3445.09,5.61,-23.42 3450.05,6.27,-23.42 3454.85,7.61,-23.42 3458.79,10.62,-23.42 3458.99,10.96,-23.42"/>
    </edge>
    <edge id="edgeId_Shape005_17_1_St" from="JuctionFrom_Shape005_17_1_St-JuctionFrom_Shape024_22_1_St-JuctionFrom_Shape022_25_1_St-JuctionTo_Shape025_46_1_Ed" to="JuctionFrom_Shape004_5_1_St-JuctionFrom_Shape006_6_1_St-JuctionTo_Shape005_17_1_Ed" priority="14" type="highway.motorway" spreadType="center" shape="3248.57,5.76,-24.91 3253.57,5.56,-24.86 3258.57,5.40,-24.81 3263.57,5.28,-24.76 3268.56,5.19,-24.71 3273.56,5.10,-24.66 3278.56,4.99,-24.61 3283.56,4.82,-24.56 3288.56,4.63,-24.51 3293.55,4.44,-24.46 3298.55,4.27,-24.41 3303.55,4.18,-24.36 3308.55,4.14,-24.31 3313.55,4.08,-24.26 3318.55,4.03,-24.21 3323.55,4.00,-24.16 3328.55,3.96,-24.11 3333.54,3.87,-24.06 3338.54,3.77,-24.01 3343.54,3.68,-23.96 3348.54,3.61,-23.91 3353.54,3.52,-23.87 3358.54,3.44,-23.82 3363.54,3.35,-23.78 3368.54,3.28,-23.73 3373.54,3.25,-23.69 3378.54,3.27,-23.65 3383.54,3.38,-23.60 3388.53,3.52,-23.56 3393.53,3.65,-23.52 3398.53,3.78,-23.49 3403.53,3.91,-23.45 3408.53,4.04,-23.41 3413.52,4.21,-23.42 3418.52,4.40,-23.42 3425.12,4.70,-23.42">
        <lane id="edgeId_Shape005_17_1_St_0" index="0" allow="private emergency authority army vip passenger hov taxi bus coach delivery truck trailer motorcycle evehicle custom1 custom2" speed="18.06" length="176.72" shape="3297.50,4.31,-24.91 3298.55,4.27,-24.41 3303.55,4.18,-24.36 3308.55,4.14,-24.31 3313.55,4.08,-24.26 3318.55,4.03,-24.21 3323.55,4.00,-24.16 3328.55,3.96,-24.11 3333.54,3.87,-24.06 3338.54,3.77,-24.01 3343.54,3.68,-23.96 3348.54,3.61,-23.91 3353.54,3.52,-23.87 3358.54,3.44,-23.82 3363.54,3.35,-23.78 3368.54,3.28,-23.73 3373.54,3.25,-23.69 3378.54,3.27,-23.65 3383.54,3.38,-23.60 3388.53,3.52,-23.56 3393.53,3.65,-23.52 3398.53,3.78,-23.49 3403.53,3.91,-23.45 3408.53,4.04,-23.41 3413.52,4.21,-23.42 3418.52,4.40,-23.42 3423.63,4.63,-23.42"/>
    </edge>
    <edge id="edgeId_Shape006_6_1_St" from="JuctionFrom_Shape004_5_1_St-JuctionFrom_Shape006_6_1_St-JuctionTo_Shape005_17_1_Ed" to="JuctionTo_Shape006_6_1_Ed-JuctionFrom_Shape008_8_1_St-JuctionTo_Shape007_9_1_Ed" priority="14" type="highway.motorway" spreadType="center" shape="3425.12,4.70,-23.42 3430.11,4.92,-23.42 3435.11,5.11,-23.42 3440.11,5.24,-23.42 3445.11,5.36,-23.42 3450.10,5.48,-23.42 3455.10,5.60,-23.42 3460.10,5.73,-23.42 3465.10,5.85,-23.42 3470.10,5.96,-23.42 3475.10,6.09,-23.44 3480.09,6.26,-23.47 3485.09,6.46,-23.53 3490.08,6.70,-23.78 3494.20,6.93,-23.98">
        <lane id="edgeId_Shape006_6_1_St_0" index="0" allow="private emergency authority army vip passenger hov taxi bus coach delivery truck trailer motorcycle evehicle custom1 custom2" speed="18.06" length="69.29" shape="3426.64,4.77,-23.42 3430.11,4.92,-23.42 3435.11,5.11,-23.42 3440.11,5.24,-23.42 3445.11,5.36,-23.42 3450.10,5.48,-23.42 3455.10,5.60,-23.42 3460.10,5.73,-23.42 3465.10,5.85,-23.42 3470.10,5.96,-23.42 3475.10,6.09,-23.44 3480.09,6.26,-23.47 3480.75,6.29,-23.98"/>
    </edge>
    <edge id="edgeId_Shape007_9_1_St" from="JuctionFrom_Shape007_9_1_St-JuctionFrom_Shape009_314_1_St-JuctionTo_Shape314_941_1_Ed" to="JuctionTo_Shape006_6_1_Ed-JuctionFrom_Shape008_8_1_St-JuctionTo_Shape007_9_1_Ed" priority="14" type="highway.motorway" spreadType="center" shape="3517.79,97.96,-23.78 3512.80,97.63,-23.72 3507.81,97.27,-23.66 3502.83,96.82,-23.53 3497.88,96.16,-23.49 3492.95,95.31,-23.46 3488.12,94.02,-23.43 3483.46,92.23,-23.42 3479.24,89.57,-23.42 3476.23,85.61,-23.42 3474.27,81.02,-23.42 3473.49,76.09,-23.42 3473.33,71.10,-23.42 3473.30,66.10,-23.42 3473.38,61.10,-23.42 3473.36,56.10,-23.42 3473.35,51.10,-23.42 3473.40,46.10,-23.42 3473.47,41.10,-23.42 3473.46,36.10,-23.42 3473.56,31.10,-23.42 3473.76,26.10,-23.42 3474.51,21.16,-23.42 3476.17,16.46,-23.42 3478.87,12.27,-23.42 3482.91,9.37,-23.45 3487.55,7.55,-23.66 3494.20,6.93,-23.98">
        <lane id="edgeId_Shape007_9_1_St_0" index="0" allow="private emergency authority army vip passenger hov taxi bus coach delivery truck trailer motorcycle evehicle custom1 custom2" speed="18.06" length="136.43" shape="3498.23,96.21,-23.78 3497.88,96.16,-23.49 3492.95,95.31,-23.46 3488.12,94.02,-23.43 3483.46,92.23,-23.42 3479.24,89.57,-23.42 3476.23,85.61,-23.42 3474.27,81.02,-23.42 3473.49,76.09,-23.42 3473.33,71.10,-23.42 3473.30,66.10,-23.42 3473.38,61.10,-23.42 3473.36,56.10,-23.42 3473.35,51.10,-23.42 3473.40,46.10,-23.42 3473.47,41.10,-23.42 3473.46,36.10,-23.42 3473.56,31.10,-23.42 3473.76,26.10,-23.42 3474.51,21.16,-23.42 3476.17,16.46,-23.42 3478.87,12.27,-23.42 3481.18,10.61,-23.98"/>
    </edge>
    <edge id="edgeId_Shape008_8_1_St" from="JuctionTo_Shape006_6_1_Ed-JuctionFrom_Shape008_8_1_St-JuctionTo_Shape007_9_1_Ed" to="JuctionTo_Shape008_8_1_Ed-JuctionFrom_Shape315_315_1_St" priority="14" type="highway.motorway" spreadType="center" shape="3494.20,6.93,-23.98 3499.05,6.98,-24.20 3504.05,7.14,-24.42 3509.04,7.38,-24.62 3514.04,7.59,-24.82 3519.03,7.83,-25.02 3524.02,8.09,-25.17">
        <lane id="edgeId_Shape008_8_1_St_0" index="0" allow="private emergency authority army vip passenger hov taxi bus coach delivery truck trailer motorcycle evehicle custom1 custom2" speed="18.06" length="29.87" shape="3495.78,6.95,-24.05 3499.05,6.98,-24.20 3504.05,7.14,-24.42 3509.04,7.38,-24.62 3514.04,7.59,-24.82 3519.03,7.83,-25.02 3523.87,8.08,-25.17"/>
    </edge>
    <edge id="edgeId_Shape009_314_1_St" from="JuctionFrom_Shape007_9_1_St-JuctionFrom_Shape009_314_1_St-JuctionTo_Shape314_941_1_Ed" to="JuctionTo_Shape011_10_1_Ed-JuctionFrom_Shape010_11_1_St-JuctionTo_Shape009_314_1_Ed" priority="14" type="highway.motorway" spreadType="center" shape="3517.79,97.96,-23.78 3512.83,98.59,-23.72 3507.86,99.09,-23.66 3502.87,99.45,-23.53 3497.88,99.69,-23.49 3492.88,99.85,-23.45 3487.88,99.92,-23.42 3482.88,99.89,-23.42 3477.88,99.84,-23.42 3472.88,99.84,-23.42 3467.88,99.78,-23.42 3462.88,99.69,-23.42 3457.90,99.32,-23.42 3452.95,98.60,-23.42 3448.19,97.09,-23.42 3443.76,94.80,-23.42 3440.06,91.45,-23.42 3437.65,88.38,-23.42">
        <lane id="edgeId_Shape009_314_1_St_0" index="0" allow="private emergency authority army vip passenger hov taxi bus coach delivery truck trailer motorcycle evehicle custom1 custom2" speed="18.06" length="83.93" shape="3498.31,99.67,-23.78 3497.88,99.69,-23.49 3492.88,99.85,-23.45 3487.88,99.92,-23.42 3482.88,99.89,-23.42 3477.88,99.84,-23.42 3472.88,99.84,-23.42 3467.88,99.78,-23.42 3462.88,99.69,-23.42 3457.90,99.32,-23.42 3452.95,98.60,-23.42 3448.19,97.09,-23.42 3443.76,94.80,-23.42 3441.81,93.03,-23.42"/>
    </edge>
    <edge id="edgeId_Shape010_11_1_St" from="JuctionTo_Shape011_10_1_Ed-JuctionFrom_Shape010_11_1_St-JuctionTo_Shape009_314_1_Ed" to="JuctionTo_Shape010_11_1_Ed-JuctionFrom_Shape026_26_1_St-JuctionFrom_Shape027_27_1_St" priority="14" type="highway.motorway" spreadType="center" shape="3437.65,88.38,-23.42 3437.64,83.38,-23.42 3437.63,78.38,-23.42 3437.62,73.38,-23.42 3437.61,68.38,-23.42 3437.60,63.38,-23.42 3437.59,58.38,-23.42 3437.58,53.38,-23.42 3437.58,48.38,-23.42 3437.57,43.38,-23.42 3437.56,38.38,-23.42 3437.55,33.38,-23.42 3437.54,28.38,-23.42 3437.53,23.38,-23.42">
        <lane id="edgeId_Shape010_11_1_St_0" index="0" allow="private emergency authority army vip passenger hov taxi bus coach delivery truck trailer motorcycle evehicle custom1 custom2" speed="18.06" length="65.00" shape="3437.65,86.33,-23.42 3437.64,83.38,-23.42 3437.63,78.38,-23.42 3437.62,73.38,-23.42 3437.61,68.38,-23.42 3437.60,63.38,-23.42 3437.59,58.38,-23.42 3437.58,53.38,-23.42 3437.58,48.38,-23.42 3437.57,43.38,-23.42 3437.56,38.38,-23.42 3437.55,33.38,-23.42 3437.54,28.38,-23.42 3437.53,24.91,-23.42"/>
    </edge>
    <edge id="edgeId_Shape011_10_1_St" from="JuctionFrom_Shape011_10_1_St" to="JuctionTo_Shape011_10_1_Ed-JuctionFrom_Shape010_11_1_St-JuctionTo_Shape009_314_1_Ed" priority="14" type="highway.motorway" spreadType="center" shape="3439.39,154.31,-23.42 3439.36,149.31,-23.42 3439.33,144.31,-23.42 3439.29,139.31,-23.42 3439.27,134.31,-23.42 3439.26,129.31,-23.42 3439.21,124.31,-23.42 3439.07,119.31,-23.42 3438.83,114.32,-23.42 3438.55,109.33,-23.42 3438.29,104.34,-23.42 3438.07,99.34,-23.42 3437.87,94.34,-23.42 3437.65,88.38,-23.42">
        <lane id="edgeId_Shape011_10_1_St_0" index="0" allow="private emergency authority army vip passenger hov taxi bus coach delivery truck trailer motorcycle evehicle custom1 custom2" speed="18.06" length="65.97" shape="3439.39,154.31,-23.42 3439.36,149.31,-23.42 3439.33,144.31,-23.42 3439.29,139.31,-23.42 3439.27,134.31,-23.42 3439.26,129.31,-23.42 3439.21,124.31,-23.42 3439.07,119.31,-23.42 3438.83,114.32,-23.42 3438.55,109.33,-23.42 3438.29,104.34,-23.42 3438.07,99.34,-23.42 3437.88,94.59,-23.42"/>
    </edge>
    <edge id="edgeId_Shape012_15_1_St" from="JuctionTo_Shape015_12_1_Ed-JuctionFrom_Shape012_15_1_St-JuctionFrom_Shape016_16_1_St" to="JuctionFrom_Shape014_14_1_St-JuctionTo_Shape012_15_1_Ed-JuctionTo_Shape013_21_1_Ed" priority="14" type="highway.motorway" spreadType="center" shape="3435.12,150.96,-23.42 3435.49,145.97,-23.42 3435.91,140.99,-23.42 3436.14,136.00,-23.42 3436.05,131.00,-23.42 3435.99,126.00,-23.42 3435.86,121.00,-23.42 3435.66,116.01,-23.42 3435.47,111.01,-23.42 3435.28,106.01,-23.42 3435.09,101.02,-23.42 3434.90,96.02,-23.42 3434.61,88.29,-23.42">
        <lane id="edgeId_Shape012_15_1_St_0" index="0" allow="private emergency authority army vip passenger hov taxi bus coach delivery truck trailer motorcycle evehicle custom1 custom2" speed="18.06" length="62.73" shape="3435.95,140.05,-23.42 3436.14,136.00,-23.42 3436.05,131.00,-23.42 3435.99,126.00,-23.42 3435.86,121.00,-23.42 3435.66,116.01,-23.42 3435.47,111.01,-23.42 3435.28,106.01,-23.42 3435.09,101.02,-23.42 3434.98,98.01,-23.42"/>
    </edge>
    <edge id="edgeId_Shape013_21_1_St" from="JuctionFrom_Shape013_21_1_St-JuctionFrom_Shape021_295_1_St-JuctionTo_Shape295_309_1_Ed" to="JuctionFrom_Shape014_14_1_St-JuctionTo_Shape012_15_1_Ed-JuctionTo_Shape013_21_1_Ed" priority="14" type="highway.motorway" spreadType="center" shape="3459.66,103.76,-23.42 3454.66,103.63,-23.42 3449.71,102.97,-23.42 3445.00,101.33,-23.42 3440.79,98.64,-23.42 3437.37,95.02,-23.42 3434.61,88.29,-23.42">
        <lane id="edgeId_Shape013_21_1_St_0" index="0" allow="private emergency authority army vip passenger hov taxi bus coach delivery truck trailer motorcycle evehicle custom1 custom2" speed="18.06" length="31.78" shape="3442.40,99.67,-23.42 3440.79,98.64,-23.42 3439.12,96.87,-23.42"/>
    </edge>
    <edge id="edgeId_Shape014_14_1_St" from="JuctionFrom_Shape014_14_1_St-JuctionTo_Shape012_15_1_Ed-JuctionTo_Shape013_21_1_Ed" to="JuctionTo_Shape014_14_1_Ed-JuctionFrom_Shape028_28_1_St" priority="14" type="highway.motorway" spreadType="center" shape="3434.61,88.29,-23.42 3434.59,83.29,-23.42 3434.59,78.29,-23.42 3434.59,73.29,-23.42 3434.59,68.29,-23.42 3434.59,63.29,-23.42 3434.59,58.29,-23.42 3434.59,53.29,-23.42 3434.59,48.29,-23.42 3434.59,43.29,-23.42 3434.59,38.29,-23.42 3434.59,33.29,-23.42 3434.59,28.29,-23.42 3434.60,23.29,-23.42 3434.60,18.29,-23.42">
        <lane id="edgeId_Shape014_14_1_St_0" index="0" allow="private emergency authority army vip passenger hov taxi bus coach delivery truck trailer motorcycle evehicle custom1 custom2" speed="18.06" length="70.00" shape="3434.60,86.48,-23.42 3434.59,83.29,-23.42 3434.59,78.29,-23.42 3434.59,73.29,-23.42 3434.59,68.29,-23.42 3434.59,63.29,-23.42 3434.59,58.29,-23.42 3434.59,53.29,-23.42 3434.59,48.29,-23.42 3434.59,43.29,-23.42 3434.59,38.29,-23.42 3434.59,33.29,-23.42 3434.59,28.29,-23.42 3434.60,23.29,-23.42 3434.60,18.29,-23.42"/>
    </edge>
    <edge id="edgeId_Shape015_12_1_St" from="JuctionFrom_Shape015_12_1_St" to="JuctionTo_Shape015_12_1_Ed-JuctionFrom_Shape012_15_1_St-JuctionFrom_Shape016_16_1_St" priority="14" type="highway.motorway" spreadType="center">
        <lane id="edgeId_Shape015_12_1_St_0" index="0" allow="private emergency authority army vip passenger hov taxi bus coach delivery truck trailer motorcycle evehicle custom1 custom2" speed="18.06" length="5.00" shape="3435.18,155.96,-23.42 3435.14,152.61,-23.42"/>
    </edge>
    <edge id="edgeId_Shape016_16_1_St" from="JuctionTo_Shape015_12_1_Ed-JuctionFrom_Shape012_15_1_St-JuctionFrom_Shape016_16_1_St" to="JuctionTo_Shape016_16_1_Ed-JuctionTo_Shape017_34_1_Ed-JuctionFrom_Shape020_298_1_St-JuctionTo_Shape298_313_1_Ed" priority="14" type="highway.motorway" spreadType="center" shape="3435.12,150.96,-23.42 3434.15,146.05,-23.42 3432.54,141.32,-23.42 3432.06,136.35,-23.42 3431.93,131.35,-23.42 3431.74,126.35,-23.42 3431.02,121.41,-23.42 3429.01,116.83,-23.42 3425.25,113.56,-23.42 3420.51,111.97,-23.42 3415.60,111.01,-23.43 3413.54,110.75,-23.44">
        <lane id="edgeId_Shape016_16_1_St_0" index="0" allow="private emergency authority army vip passenger hov taxi bus coach delivery truck trailer motorcycle evehicle custom1 custom2" speed="18.06" length="43.78" shape="3432.44,140.27,-23.42 3432.06,136.35,-23.42 3431.93,131.35,-23.42 3431.74,126.35,-23.42 3431.02,121.41,-23.42 3429.01,116.83,-23.42 3426.55,114.69,-23.42"/>
    </edge>
    <edge id="edgeId_Shape017_34_1_St" from="JuctionTo_Shape024_22_1_Ed-JuctionTo_Shape034_24_1_Ed-JuctionFrom_Shape017_34_1_St" to="JuctionTo_Shape016_16_1_Ed-JuctionTo_Shape017_34_1_Ed-JuctionFrom_Shape020_298_1_St-JuctionTo_Shape298_313_1_Ed" priority="14" type="highway.motorway" spreadType="center" shape="3455.28,21.05,-23.42 3455.26,26.05,-23.42 3455.29,31.05,-23.42 3455.28,36.04,-23.42 3455.27,41.04,-23.42 3455.26,46.04,-23.42 3455.25,51.04,-23.42 3455.24,56.04,-23.42 3455.22,61.04,-23.42 3455.20,66.04,-23.42 3455.19,71.04,-23.42 3455.18,76.04,-23.42 3455.16,81.04,-23.42 3455.20,86.04,-23.42 3455.07,91.04,-23.42 3454.21,95.95,-23.42 3451.95,100.40,-23.42 3448.71,104.18,-23.42 3444.52,106.90,-23.42 3439.84,108.63,-23.42 3434.95,109.65,-23.42 3429.99,110.29,-23.42 3425.00,110.58,-23.42 3420.01,110.75,-23.42 3413.54,110.75,-23.44">
        <lane id="edgeId_Shape017_34_1_St_0" index="0" allow="private emergency authority army vip passenger hov taxi bus coach delivery truck trailer motorcycle evehicle custom1 custom2" speed="18.06" length="104.21" shape="3455.27,22.99,-23.42 3455.26,26.05,-23.42 3455.29,31.05,-23.42 3455.28,36.04,-23.42 3455.27,41.04,-23.42 3455.26,46.04,-23.42 3455.25,51.04,-23.42 3455.24,56.04,-23.42 3455.22,61.04,-23.42 3455.20,66.04,-23.42 3455.19,71.04,-23.42 3455.18,76.04,-23.42 3455.16,81.04,-23.42 3455.20,86.04,-23.42 3455.07,91.04,-23.42 3454.21,95.95,-23.42 3451.95,100.40,-23.42 3448.71,104.18,-23.42 3444.52,106.90,-23.42 3443.45,107.29,-23.42"/>
    </edge>
    <edge id="edgeId_Shape018_18_1_St" from="JuctionFrom_Shape018_18_1_St" to="JuctionTo_Shape018_18_1_Ed-JuctionFrom_Shape019_297_1_St-JuctionTo_Shape297_312_1_Ed" priority="14" type="highway.motorway" spreadType="center" shape="3451.62,-33.86,-23.42 3451.60,-28.86,-23.42 3451.58,-23.86,-23.42 3451.55,-18.86,-23.42 3451.53,-13.86,-23.42 3451.51,-8.86,-23.42 3451.48,-3.86,-23.42 3451.46,1.14,-23.42 3451.44,6.14,-23.42 3451.42,11.14,-23.42 3451.39,16.14,-23.42 3451.37,21.14,-23.42 3451.38,26.14,-23.42 3451.42,31.13,-23.42 3451.45,36.13,-23.42 3451.48,41.13,-23.42 3451.50,46.13,-23.42 3451.53,51.13,-23.42 3451.55,56.13,-23.42 3451.57,61.13,-23.42 3451.58,66.13,-23.42 3451.58,71.13,-23.42 3451.57,76.13,-23.42 3451.53,81.13,-23.42 3451.46,86.13,-23.42 3451.18,91.12,-23.42 3449.51,95.81,-23.42 3446.44,99.74,-23.42 3442.52,102.82,-23.42 3438.06,105.06,-23.42 3433.25,106.40,-23.42 3428.27,106.80,-23.42 3423.28,107.06,-23.42 3418.28,107.36,-23.42 3413.45,107.66,-23.44">
        <lane id="edgeId_Shape018_18_1_St_0" index="0" allow="private emergency authority army vip passenger hov taxi bus coach delivery truck trailer motorcycle evehicle custom1 custom2" speed="18.06" length="169.50" shape="3451.62,-33.86,-23.42 3451.60,-28.86,-23.42 3451.58,-23.86,-23.42 3451.55,-18.86,-23.42 3451.53,-13.86,-23.42 3451.51,-8.86,-23.42 3451.48,-3.86,-23.42 3451.46,1.14,-23.42 3451.44,6.14,-23.42 3451.42,11.14,-23.42 3451.39,16.14,-23.42 3451.37,21.14,-23.42 3451.38,26.14,-23.42 3451.42,31.13,-23.42 3451.45,36.13,-23.42 3451.48,41.13,-23.42 3451.50,46.13,-23.42 3451.53,51.13,-23.42 3451.55,56.13,-23.42 3451.57,61.13,-23.42 3451.58,66.13,-23.42 3451.58,71.13,-23.42 3451.57,76.13,-23.42 3451.53,81.13,-23.42 3451.46,86.13,-23.42 3451.18,91.12,-23.42 3449.51,95.81,-23.42 3446.44,99.74,-23.42 3442.52,102.82,-23.42 3440.77,103.70,-23.42"/>
    </edge>