<?xml version="1.0" encoding="UTF-8"?>

<!-- generated on 2022-06-22 16:08:50 by Eclipse SUMO netedit Version 1.10.0
<configuration xmlns:xsi="http://www.w3.org/2001/XMLSchema-instance" xsi:noNamespaceSchemaLocation="http://sumo.dlr.de/xsd/netconvertConfiguration.xsd">

    <input>
        <sumo-net-file value="D:\@Tll_Training\SUMO_Projects\HSKmultiLanesTLStest\shaz.net.xml"/>
    </input>

    <output>
        <output-file value="D:\@Tll_Training\SUMO_Projects\HSKmultiLanesTLStest\shaz.net.xml"/>
    </output>

    <processing>
        <geometry.min-radius.fix.railways value="false"/>
        <geometry.max-grade.fix value="false"/>
        <offset.disable-normalization value="true"/>
        <lefthand value="false"/>
    </processing>

    <junctions>
        <no-internal-links value="true"/>
        <no-turnarounds value="true"/>
        <junctions.corner-detail value="5"/>
        <junctions.limit-turn-speed value="5.5"/>
        <rectangular-lane-cut value="false"/>
    </junctions>

    <pedestrian>
        <walkingareas value="false"/>
    </pedestrian>

    <netedit>
        <route-files value="D:\@Tll_Training\SUMO_Projects\HSKmultiLanesTLStest\shaz.rou.xml"/>
    </netedit>

    <report>
        <aggregate-warnings value="5"/>
    </report>

</configuration>
-->

<routes xmlns:xsi="http://www.w3.org/2001/XMLSchema-instance" xsi:noNamespaceSchemaLocation="http://sumo.dlr.de/xsd/routes_file.xsd">
    <trip id="0" depart="0.00" departLane="0" departPos="12.00" color="red" from="e1" to="edgeId_Shape012_37_1_St" via="edgeId_Shape035_28_1_St edgeId_Shape031_39_1_St"/>
    <flow id="flow_0" begin="0.00" departLane="3" color="128,128,0" from="e1" to="edgeId_Shape028_42_1_St" via="edgeId_Shape039_14_1_St" end="3600.00" number="1800"/>
    <flow id="flow_1" begin="0.00" departLane="0" color="cyan" from="e1" to="edgeId_Shape014_38_1_St" via="edgeId_Shape037_10_1_St" end="3600.00" number="1800"/>
    <flow id="flow_2" begin="0.00" departLane="1" color="white" from="e1" to="edgeId_Shape012_37_1_St" via="edgeId_Shape035_28_1_St edgeId_Shape031_39_1_St" end="3600.00" number="1800"/>
    <flow id="flow_3" begin="0.00" departLane="2" color="orange" from="e1" to="edgeId_Shape023_36_1_St" via="edgeId_Shape045_24_1_St" end="3600.00" number="1800"/>
    <flow id="flow_4" begin="0.00" departLane="4" color="blue" from="e1" to="edgeId_Shape032_43_1_St" via="edgeId_Shape045_24_1_St" end="3600.00" number="1800"/>
    <flow id="flow_5" begin="0.00" end="3600.00" number="1800">
        <route edges="e6" color="cyan"/>
    </flow>
</routes>
