<?xml version="1.0" encoding="UTF-8"?>

<!-- generated on 2022-06-27 09:32:10 by Eclipse SUMO netedit Version 1.10.0
<configuration xmlns:xsi="http://www.w3.org/2001/XMLSchema-instance" xsi:noNamespaceSchemaLocation="http://sumo.dlr.de/xsd/netconvertConfiguration.xsd">

    <input>
        <sumo-net-file value="D:\@Tll_Training\SUMO_Projects\HSKmultiLanesTLStest\Shaz2.net.xml"/>
    </input>

    <output>
        <output-file value="D:\@Tll_Training\SUMO_Projects\HSKmultiLanesTLStest\Shaz2.net.xml"/>
    </output>

    <processing>
        <geometry.min-radius.fix.railways value="false"/>
        <geometry.max-grade.fix value="false"/>
        <offset.disable-normalization value="true"/>
        <lefthand value="false"/>
    </processing>

    <junctions>
        <no-internal-links value="true"/>
        <no-turnarounds value="true"/>
        <junctions.corner-detail value="5"/>
        <junctions.limit-turn-speed value="5.5"/>
        <rectangular-lane-cut value="false"/>
    </junctions>

    <pedestrian>
        <walkingareas value="false"/>
    </pedestrian>

    <report>
        <aggregate-warnings value="5"/>
    </report>

</configuration>
-->

<net version="1.9" junctionCornerDetail="5" limitTurnSpeed="5.50" xmlns:xsi="http://www.w3.org/2001/XMLSchema-instance" xsi:noNamespaceSchemaLocation="http://sumo.dlr.de/xsd/net_file.xsd">

    <location netOffset="-274535.29,-4297431.43" convBoundary="3378.46,36.10,3547.42,157.06" origBoundary="-77.596256,38.797200,-77.215237,38.890060" projParameter="+proj=utm +zone=18 +ellps=WGS84 +datum=WGS84 +units=m +no_defs"/>

    <edge id="e1" from="j0" to="j1" priority="14" type="highway.motorway" spreadType="center">
        <lane id="e1_0" index="0" allow="private emergency authority army vip passenger hov taxi bus coach delivery truck trailer motorcycle evehicle custom1 custom2" speed="18.06" length="73.57" shape="3545.85,112.80,-24.18 3483.36,113.74,-21.86"/>
        <lane id="e1_1" index="1" allow="private emergency authority army vip passenger hov taxi bus coach delivery truck trailer motorcycle evehicle custom1 custom2" speed="18.06" length="73.57" shape="3545.80,109.60,-24.18 3483.32,110.54,-21.86"/>
        <lane id="e1_2" index="2" allow="private emergency authority army vip passenger hov taxi bus coach delivery truck trailer motorcycle evehicle custom1 custom2" speed="18.06" length="73.57" shape="3545.75,106.40,-24.18 3483.27,107.34,-21.86"/>
        <lane id="e1_3" index="3" allow="private emergency authority army vip passenger hov taxi bus coach delivery truck trailer motorcycle evehicle custom1 custom2" speed="18.06" length="73.57" shape="3545.70,103.20,-24.18 3483.22,104.14,-21.86"/>
        <lane id="e1_4" index="4" allow="private emergency authority army vip passenger hov taxi bus coach delivery truck trailer motorcycle evehicle custom1 custom2" speed="18.06" length="73.57" shape="3545.65,100.00,-24.18 3483.17,100.94,-21.86"/>
    </edge>
    <edge id="e2" from="j0" to="j3" priority="14" type="highway.motorway" spreadType="center" shape="3547.42,97.69,-24.35 3542.42,97.74,-24.25 3537.42,97.78,-24.16 3532.42,97.82,-24.06 3527.42,97.87,-23.96 3522.42,97.91,-23.87 3517.79,97.96,-23.78">
        <lane id="e2_0" index="0" allow="private emergency authority army vip passenger hov taxi bus coach delivery truck trailer motorcycle evehicle custom1 custom2" speed="18.06" length="36.57" shape="3545.66,97.71,-24.31 3542.42,97.74,-24.25 3537.42,97.78,-24.16 3532.42,97.82,-24.06 3527.42,97.87,-23.96 3522.42,97.91,-23.87 3517.79,97.96,-23.78"/>
    </edge>
    <edge id="e3" from="j3" to="JuctionTo_Shape022_41_1_Ed" priority="14" type="highway.motorway" spreadType="center" shape="3517.79,97.96,-23.78 3512.80,97.63,-23.72 3507.81,97.27,-23.66 3502.83,96.82,-23.53 3497.88,96.16,-23.49 3492.95,95.31,-23.46 3488.12,94.02,-23.43 3483.46,92.23,-23.42 3479.24,89.57,-23.42 3476.23,85.61,-23.42 3474.27,81.02,-23.42 3473.49,76.09,-23.42 3473.33,71.10,-23.42 3473.30,66.10,-23.42 3473.38,61.10,-23.42 3473.36,56.10,-23.42 3473.35,51.10,-23.42 3473.40,46.10,-23.42 3473.47,41.10,-23.42 3473.46,36.10,-23.42">
        <lane id="e3_0" index="0" allow="private emergency authority army vip passenger hov taxi bus coach delivery truck trailer motorcycle evehicle custom1 custom2" speed="18.06" length="94.93" shape="3517.79,97.96,-23.78 3512.80,97.63,-23.72 3507.81,97.27,-23.66 3502.83,96.82,-23.53 3497.88,96.16,-23.49 3492.95,95.31,-23.46 3488.12,94.02,-23.43 3483.46,92.23,-23.42 3479.24,89.57,-23.42 3476.23,85.61,-23.42 3474.27,81.02,-23.42 3473.49,76.09,-23.42 3473.33,71.10,-23.42 3473.30,66.10,-23.42 3473.38,61.10,-23.42 3473.36,56.10,-23.42 3473.35,51.10,-23.42 3473.40,46.10,-23.42 3473.47,41.10,-23.42 3473.46,36.10,-23.42"/>
    </edge>
    <edge id="edgeId_Shape011_1_1_St" from="JuctionFrom_Shape011_1_1_St" to="JuctionTo_Shape011_1_1_Ed-JuctionFrom_Shape041_9_1_St" priority="14" type="highway.motorway" spreadType="center" shape="3443.13,153.82,-23.42 3443.08,148.82,-23.42 3443.02,143.82,-23.42 3442.94,138.83,-23.42 3442.87,133.83,-23.42 3442.79,128.83,-23.42 3442.76,123.10,-23.42">
        <lane id="edgeId_Shape011_1_1_St_0" index="0" allow="private emergency authority army vip passenger hov taxi bus coach delivery truck trailer motorcycle evehicle custom1 custom2" speed="18.06" length="30.72" shape="3443.13,153.82,-23.42 3443.08,148.82,-23.42 3443.02,143.82,-23.42 3442.94,138.83,-23.42 3442.87,133.83,-23.42 3442.79,128.83,-23.42 3442.76,123.22,-23.42"/>
    </edge>
    <edge id="edgeId_Shape012_37_1_St" from="JuctionTo_Shape025_5_1_Ed-JuctionFrom_Shape012_37_1_St-JuctionTo_Shape031_39_1_Ed" to="JuctionTo_Shape012_37_1_Ed" priority="14" type="highway.motorway" spreadType="center" shape="3405.51,103.95,-23.50 3400.51,103.92,-23.53 3395.51,103.86,-23.56 3390.51,103.76,-23.60 3385.51,103.65,-23.63 3380.51,103.56,-23.66">
        <lane id="edgeId_Shape012_37_1_St_0" index="0" allow="private emergency authority army vip passenger hov taxi bus coach delivery truck trailer motorcycle evehicle custom1 custom2" speed="18.06" length="25.00" shape="3403.90,103.94,-23.51 3400.51,103.92,-23.53 3395.51,103.86,-23.56 3390.51,103.76,-23.60 3385.51,103.65,-23.63 3380.51,103.56,-23.66"/>
    </edge>
    <edge id="edgeId_Shape014_38_1_St" from="j9" to="JuctionTo_Shape014_38_1_Ed" priority="14" type="highway.motorway" spreadType="center" shape="3426.51,107.66,-23.44 3408.45,107.60,-23.48 3403.45,107.55,-23.51 3398.45,107.51,-23.54 3393.45,107.46,-23.58 3388.45,107.39,-23.61 3383.45,107.30,-23.64 3378.46,107.18,-23.68">
        <lane id="edgeId_Shape014_38_1_St_0" index="0" allow="private emergency authority army vip passenger hov taxi bus coach delivery truck trailer motorcycle evehicle custom1 custom2" speed="18.06" length="48.05" shape="3426.36,107.66,-23.44 3408.45,107.60,-23.48 3403.45,107.55,-23.51 3398.45,107.51,-23.54 3393.45,107.46,-23.58 3388.45,107.39,-23.61 3383.45,107.30,-23.64 3378.46,107.18,-23.68"/>
    </edge>
    <edge id="edgeId_Shape015_6_1_St" from="JuctionTo_Shape016_2_1_Ed-JuctionFrom_Shape015_6_1_St-JuctionFrom_Shape018_18_1_St" to="JuctionTo_Shape015_6_1_Ed-JuctionFrom_Shape044_12_1_St" priority="14" type="highway.motorway" spreadType="center" shape="3435.12,150.96,-23.42 3434.15,146.05,-23.42 3432.54,141.32,-23.42 3432.06,136.35,-23.42 3431.93,131.35,-23.42 3431.71,122.98,-23.42">
        <lane id="edgeId_Shape015_6_1_St_0" index="0" allow="private emergency authority army vip passenger hov taxi bus coach delivery truck trailer motorcycle evehicle custom1 custom2" speed="18.06" length="28.33" shape="3432.44,140.27,-23.42 3432.06,136.35,-23.42 3431.93,131.35,-23.42 3431.71,122.98,-23.42"/>
    </edge>
    <edge id="edgeId_Shape016_2_1_St" from="JuctionFrom_Shape016_2_1_St" to="JuctionTo_Shape016_2_1_Ed-JuctionFrom_Shape015_6_1_St-JuctionFrom_Shape018_18_1_St" priority="14" type="highway.motorway" spreadType="center">
        <lane id="edgeId_Shape016_2_1_St_0" index="0" allow="private emergency authority army vip passenger hov taxi bus coach delivery truck trailer motorcycle evehicle custom1 custom2" speed="18.06" length="5.00" shape="3435.18,155.96,-23.42 3435.14,152.61,-23.42"/>
    </edge>
    <edge id="edgeId_Shape017_26_1_St" from="JuctionTo_Shape044_12_1_Ed-JuctionFrom_Shape017_26_1_St" to="JuctionTo_Shape017_26_1_Ed" priority="14" type="highway.motorway" spreadType="center" shape="3434.61,88.26,-23.42 3434.59,83.29,-23.42 3434.59,78.29,-23.42 3434.59,73.29,-23.42 3434.59,68.29,-23.42 3434.59,63.29,-23.42 3434.59,58.29,-23.42 3434.59,53.29,-23.42 3434.59,48.29,-23.42 3434.59,43.29,-23.42 3434.59,38.29,-23.42">
        <lane id="edgeId_Shape017_26_1_St_0" index="0" allow="private emergency authority army vip passenger hov taxi bus coach delivery truck trailer motorcycle evehicle custom1 custom2" speed="18.06" length="49.97" shape="3434.61,88.26,-23.42 3434.59,83.29,-23.42 3434.59,78.29,-23.42 3434.59,73.29,-23.42 3434.59,68.29,-23.42 3434.59,63.29,-23.42 3434.59,58.29,-23.42 3434.59,53.29,-23.42 3434.59,48.29,-23.42 3434.59,43.29,-23.42 3434.59,38.29,-23.42"/>
    </edge>
    <edge id="edgeId_Shape018_18_1_St" from="JuctionTo_Shape016_2_1_Ed-JuctionFrom_Shape015_6_1_St-JuctionFrom_Shape018_18_1_St" to="JuctionTo_Shape018_18_1_Ed-JuctionFrom_Shape043_27_1_St" priority="14" type="highway.motorway" spreadType="center" shape="3435.12,150.96,-23.42 3435.49,145.97,-23.42 3435.91,140.99,-23.42 3436.03,136.00,-23.42 3435.87,131.00,-23.42 3435.70,122.92,-23.42">
        <lane id="edgeId_Shape018_18_1_St_0" index="0" allow="private emergency authority army vip passenger hov taxi bus coach delivery truck trailer motorcycle evehicle custom1 custom2" speed="18.06" length="28.08" shape="3435.93,140.05,-23.42 3436.03,136.00,-23.42 3435.87,131.00,-23.42 3435.70,122.92,-23.42"/>
    </edge>
    <edge id="edgeId_Shape019_19_1_St" from="JuctionFrom_Shape019_19_1_St" to="JuctionTo_Shape019_19_1_Ed-JuctionFrom_Shape042_25_1_St" priority="14" type="highway.motorway" spreadType="center" shape="3439.39,154.31,-23.42 3439.36,149.31,-23.42 3439.33,144.31,-23.42 3439.29,139.31,-23.42 3439.27,134.31,-23.42 3439.26,129.31,-23.42 3439.17,122.88,-23.42">
        <lane id="edgeId_Shape019_19_1_St_0" index="0" allow="private emergency authority army vip passenger hov taxi bus coach delivery truck trailer motorcycle evehicle custom1 custom2" speed="18.06" length="31.43" shape="3439.39,154.31,-23.42 3439.36,149.31,-23.42 3439.33,144.31,-23.42 3439.29,139.31,-23.42 3439.27,134.31,-23.42 3439.26,129.31,-23.42 3439.17,123.01,-23.42"/>
    </edge>
    <edge id="edgeId_Shape020_33_1_St" from="JuctionTo_Shape042_25_1_Ed-JuctionTo_Shape043_27_1_Ed-JuctionFrom_Shape020_33_1_St" to="JuctionTo_Shape020_33_1_Ed" priority="14" type="highway.motorway" spreadType="center" shape="3437.65,88.36,-23.42 3437.64,83.38,-23.42 3437.63,78.38,-23.42 3437.62,73.38,-23.42 3437.61,68.38,-23.42 3437.60,63.38,-23.42 3437.59,58.38,-23.42 3437.58,53.38,-23.42 3437.58,48.38,-23.42 3437.57,43.38,-23.42 3437.56,38.38,-23.42">
        <lane id="edgeId_Shape020_33_1_St_0" index="0" allow="private emergency authority army vip passenger hov taxi bus coach delivery truck trailer motorcycle evehicle custom1 custom2" speed="18.06" length="49.98" shape="3437.65,86.81,-23.42 3437.64,83.38,-23.42 3437.63,78.38,-23.42 3437.62,73.38,-23.42 3437.61,68.38,-23.42 3437.60,63.38,-23.42 3437.59,58.38,-23.42 3437.58,53.38,-23.42 3437.58,48.38,-23.42 3437.57,43.38,-23.42 3437.56,38.38,-23.42"/>
    </edge>
    <edge id="edgeId_Shape023_36_1_St" from="JuctionTo_Shape038_23_1_Ed-JuctionTo_Shape045_24_1_Ed-JuctionTo_Shape034_35_1_Ed-JuctionFrom_Shape023_36_1_St-JuctionFrom_Shape032_43_1_St" to="JuctionTo_Shape023_36_1_Ed" priority="14" type="highway.motorway" spreadType="center" shape="3460.31,122.72,-23.42 3461.14,130.72,-23.42 3461.11,135.72,-23.42 3461.09,140.72,-23.42 3461.06,145.72,-23.42 3461.03,150.72,-23.42 3461.01,155.72,-23.42 3461.00,157.06,-23.42">
        <lane id="edgeId_Shape023_36_1_St_0" index="0" allow="private emergency authority army vip passenger hov taxi bus coach delivery truck trailer motorcycle evehicle custom1 custom2" speed="18.06" length="34.38" shape="3460.51,124.65,-23.42 3461.14,130.72,-23.42 3461.11,135.72,-23.42 3461.09,140.72,-23.42 3461.06,145.72,-23.42 3461.03,150.72,-23.42 3461.01,155.72,-23.42 3461.00,157.06,-23.42"/>
    </edge>
    <edge id="edgeId_Shape024_29_1_St" from="JuctionFrom_Shape024_29_1_St" to="JuctionTo_Shape024_29_1_Ed-JuctionFrom_Shape034_35_1_St" priority="14" type="highway.motorway" spreadType="center" shape="3462.69,40.56,-23.42 3462.66,45.56,-23.42 3462.64,50.56,-23.42 3462.62,55.56,-23.42 3462.61,60.56,-23.42 3462.59,65.56,-23.42 3462.57,70.56,-23.42 3462.55,75.56,-23.42 3462.54,80.56,-23.42 3462.52,85.56,-23.42 3462.43,88.94,-23.42">
        <lane id="edgeId_Shape024_29_1_St_0" index="0" allow="private emergency authority army vip passenger hov taxi bus coach delivery truck trailer motorcycle evehicle custom1 custom2" speed="18.06" length="48.38" shape="3462.69,40.56,-23.42 3462.66,45.56,-23.42 3462.64,50.56,-23.42 3462.62,55.56,-23.42 3462.61,60.56,-23.42 3462.59,65.56,-23.42 3462.57,70.56,-23.42 3462.55,75.56,-23.42 3462.54,80.56,-23.42 3462.52,85.56,-23.42 3462.43,88.82,-23.42"/>
    </edge>
    <edge id="edgeId_Shape025_5_1_St" from="JuctionFrom_Shape025_5_1_St" to="JuctionTo_Shape025_5_1_Ed-JuctionFrom_Shape012_37_1_St-JuctionTo_Shape031_39_1_Ed" priority="14" type="highway.motorway" spreadType="center" shape="3422.54,39.83,-23.42 3422.51,44.83,-23.42 3422.52,49.83,-23.42 3422.55,54.83,-23.42 3422.57,59.83,-23.42 3422.58,64.83,-23.42 3422.61,69.83,-23.42 3422.67,74.83,-23.42 3422.71,79.83,-23.42 3422.73,84.82,-23.42 3422.25,89.80,-23.42 3420.96,94.62,-23.42 3418.41,98.89,-23.42 3414.41,101.84,-23.44 3409.67,103.39,-23.47 3405.51,103.95,-23.50">
        <lane id="edgeId_Shape025_5_1_St_0" index="0" allow="private emergency authority army vip passenger hov taxi bus coach delivery truck trailer motorcycle evehicle custom1 custom2" speed="18.06" length="73.87" shape="3422.54,39.83,-23.42 3422.51,44.83,-23.42 3422.52,49.83,-23.42 3422.55,54.83,-23.42 3422.57,59.83,-23.42 3422.58,64.83,-23.42 3422.61,69.83,-23.42 3422.67,74.83,-23.42 3422.71,79.83,-23.42 3422.73,84.82,-23.42 3422.25,89.80,-23.42 3420.96,94.62,-23.42 3418.41,98.89,-23.42 3417.28,99.72,-23.43"/>
    </edge>
    <edge id="edgeId_Shape026_21_1_St" from="JuctionFrom_Shape026_21_1_St" to="JuctionTo_Shape026_21_1_Ed-JuctionFrom_Shape038_23_1_St" priority="14" type="highway.motorway" spreadType="center" shape="3459.46,40.59,-23.42 3459.44,45.59,-23.42 3459.42,50.59,-23.42 3459.40,55.59,-23.42 3459.38,60.59,-23.42 3459.36,65.59,-23.42 3459.35,70.59,-23.42 3459.33,75.59,-23.42 3459.31,80.59,-23.42 3459.29,85.59,-23.42 3459.25,88.96,-23.42">
        <lane id="edgeId_Shape026_21_1_St_0" index="0" allow="private emergency authority army vip passenger hov taxi bus coach delivery truck trailer motorcycle evehicle custom1 custom2" speed="18.06" length="48.37" shape="3459.46,40.59,-23.42 3459.44,45.59,-23.42 3459.42,50.59,-23.42 3459.40,55.59,-23.42 3459.38,60.59,-23.42 3459.36,65.59,-23.42 3459.35,70.59,-23.42 3459.33,75.59,-23.42 3459.31,80.59,-23.42 3459.29,85.59,-23.42 3459.25,88.86,-23.42"/>
    </edge>
    <edge id="edgeId_Shape027_44_1_St" from="JuctionFrom_Shape027_44_1_St" to="JuctionTo_Shape040_20_1_Ed-JuctionTo_Shape033_34_1_Ed-JuctionTo_Shape027_44_1_Ed" priority="14" type="highway.motorway" spreadType="center" shape="3444.55,37.74,-23.42 3444.61,42.74,-23.42 3444.66,47.74,-23.42 3444.66,52.74,-23.42 3444.65,57.74,-23.42 3444.64,62.74,-23.42 3444.66,67.74,-23.42 3444.70,72.74,-23.42 3444.78,77.74,-23.42 3444.92,82.73,-23.42 3445.10,88.38,-23.42">
        <lane id="edgeId_Shape027_44_1_St_0" index="0" allow="private emergency authority army vip passenger hov taxi bus coach delivery truck trailer motorcycle evehicle custom1 custom2" speed="18.06" length="50.65" shape="3444.55,37.74,-23.42 3444.61,42.74,-23.42 3444.66,47.74,-23.42 3444.66,52.74,-23.42 3444.65,57.74,-23.42 3444.64,62.74,-23.42 3444.66,67.74,-23.42 3444.70,72.74,-23.42 3444.78,77.74,-23.42 3444.92,82.73,-23.42 3445.03,86.23,-23.42"/>
    </edge>
    <edge id="edgeId_Shape028_42_1_St" from="j10" to="JuctionTo_Shape013_22_1_Ed" priority="14" type="highway.motorway" spreadType="center" shape="3425.71,111.06,-23.43 3413.54,110.75,-23.44 3408.54,110.71,-23.47 3403.54,110.67,-23.51 3398.54,110.64,-23.54 3393.55,110.61,-23.58 3388.55,110.59,-23.61 3383.55,110.57,-23.64 3378.55,110.55,-23.68">
        <lane id="edgeId_Shape028_42_1_St_0" index="0" allow="private emergency authority army vip passenger hov taxi bus coach delivery truck trailer motorcycle evehicle custom1 custom2" speed="18.06" length="47.17" shape="3425.57,111.06,-23.43 3413.54,110.75,-23.44 3408.54,110.71,-23.47 3403.54,110.67,-23.51 3398.54,110.64,-23.54 3393.55,110.61,-23.58 3388.55,110.59,-23.61 3383.55,110.57,-23.64 3378.55,110.55,-23.68"/>
    </edge>
    <edge id="edgeId_Shape029_31_1_St" from="JuctionFrom_Shape040_20_1_St-JuctionFrom_Shape029_31_1_St" to="JuctionTo_Shape029_31_1_Ed" priority="14" type="highway.motorway" spreadType="center" shape="3446.14,123.35,-23.42 3446.25,127.71,-23.42 3446.36,132.71,-23.42 3446.45,137.71,-23.42 3446.50,142.71,-23.42 3446.59,147.71,-23.42 3446.75,152.70,-23.42 3446.90,156.72,-23.42">
        <lane id="edgeId_Shape029_31_1_St_0" index="0" allow="private emergency authority army vip passenger hov taxi bus coach delivery truck trailer motorcycle evehicle custom1 custom2" speed="18.06" length="33.38" shape="3446.18,124.85,-23.42 3446.25,127.71,-23.42 3446.36,132.71,-23.42 3446.45,137.71,-23.42 3446.50,142.71,-23.42 3446.59,147.71,-23.42 3446.75,152.70,-23.42 3446.90,156.72,-23.42"/>
    </edge>
    <edge id="edgeId_Shape030_32_1_St" from="JuctionTo_Shape041_9_1_Ed-JuctionTo_Shape036_11_1_Ed-JuctionFrom_Shape030_32_1_St" to="JuctionTo_Shape030_32_1_Ed" priority="14" type="highway.motorway" spreadType="center" shape="3441.43,88.34,-23.42 3441.29,83.86,-23.42 3441.18,78.86,-23.42 3441.12,73.86,-23.42 3441.08,68.86,-23.42 3441.05,63.86,-23.42 3441.04,58.86,-23.42 3441.03,53.87,-23.42 3441.03,48.87,-23.42 3441.04,43.87,-23.42 3441.04,38.87,-23.42">
        <lane id="edgeId_Shape030_32_1_St_0" index="0" allow="private emergency authority army vip passenger hov taxi bus coach delivery truck trailer motorcycle evehicle custom1 custom2" speed="18.06" length="49.47" shape="3441.37,86.44,-23.42 3441.29,83.86,-23.42 3441.18,78.86,-23.42 3441.12,73.86,-23.42 3441.08,68.86,-23.42 3441.05,63.86,-23.42 3441.04,58.86,-23.42 3441.03,53.87,-23.42 3441.03,48.87,-23.42 3441.04,43.87,-23.42 3441.04,38.87,-23.42"/>
    </edge>
    <edge id="edgeId_Shape031_39_1_St" from="j8" to="JuctionTo_Shape025_5_1_Ed-JuctionFrom_Shape012_37_1_St-JuctionTo_Shape031_39_1_Ed" priority="14" type="highway.motorway" spreadType="center" shape="3426.77,103.97,-23.42 3419.66,103.98,-23.42 3414.66,103.98,-23.43 3409.66,103.97,-23.47 3405.51,103.95,-23.50">
        <lane id="edgeId_Shape031_39_1_St_0" index="0" allow="private emergency authority army vip passenger hov taxi bus coach delivery truck trailer motorcycle evehicle custom1 custom2" speed="18.06" length="21.26" shape="3426.62,103.97,-23.42 3419.66,103.98,-23.42 3417.87,103.98,-23.42"/>
    </edge>
    <edge id="edgeId_Shape032_43_1_St" from="JuctionTo_Shape038_23_1_Ed-JuctionTo_Shape045_24_1_Ed-JuctionTo_Shape034_35_1_Ed-JuctionFrom_Shape023_36_1_St-JuctionFrom_Shape032_43_1_St" to="JuctionTo_Shape032_43_1_Ed" priority="14" type="highway.motorway" spreadType="center" shape="3460.31,122.72,-23.42 3458.52,130.58,-23.42 3458.43,135.58,-23.42 3458.34,140.58,-23.42 3458.25,145.57,-23.42 3458.15,150.57,-23.42 3458.04,156.40,-23.42">
        <lane id="edgeId_Shape032_43_1_St_0" index="0" allow="private emergency authority army vip passenger hov taxi bus coach delivery truck trailer motorcycle evehicle custom1 custom2" speed="18.06" length="33.89" shape="3459.86,124.70,-23.42 3458.52,130.58,-23.42 3458.43,135.58,-23.42 3458.34,140.58,-23.42 3458.25,145.57,-23.42 3458.15,150.57,-23.42 3458.04,156.40,-23.42"/>
    </edge>
    <edge id="edgeId_Shape033_34_1_St" from="j1" to="JuctionTo_Shape040_20_1_Ed-JuctionTo_Shape033_34_1_Ed-JuctionTo_Shape027_44_1_Ed" priority="14" type="highway.motorway" spreadType="center" shape="3472.64,99.84,-23.42 3455.01,97.90,-23.42 3445.10,88.38,-23.42">
        <lane id="edgeId_Shape033_34_1_St_0" index="0" allow="private emergency authority army vip passenger hov taxi bus coach delivery truck trailer motorcycle evehicle custom1 custom2" speed="18.06" length="33.29" shape="3447.86,91.03,-23.42 3447.71,90.89,-23.42"/>
    </edge>
    <edge id="edgeId_Shape034_35_1_St" from="JuctionTo_Shape024_29_1_Ed-JuctionFrom_Shape034_35_1_St" to="JuctionTo_Shape038_23_1_Ed-JuctionTo_Shape045_24_1_Ed-JuctionTo_Shape034_35_1_Ed-JuctionFrom_Shape023_36_1_St-JuctionFrom_Shape032_43_1_St" priority="14" type="highway.motorway" spreadType="center">
        <lane id="edgeId_Shape034_35_1_St_0" index="0" allow="private emergency authority army vip passenger hov taxi bus coach delivery truck trailer motorcycle evehicle custom1 custom2" speed="18.06" length="33.85" shape="3462.42,89.06,-23.42 3460.86,113.93,-23.42"/>
    </edge>
    <edge id="edgeId_Shape035_28_1_St" from="j1" to="j8" priority="14" type="highway.motorway" spreadType="center" shape="3472.25,103.64,-15.61 3426.77,103.97,-23.42">
        <lane id="edgeId_Shape035_28_1_St_0" index="0" allow="private emergency authority army vip passenger hov taxi bus coach delivery truck trailer motorcycle evehicle custom1 custom2" speed="18.06" length="45.77" shape="3443.49,103.85,-21.86 3426.92,103.97,-23.41"/>
    </edge>
    <edge id="edgeId_Shape036_11_1_St" from="j1" to="JuctionTo_Shape041_9_1_Ed-JuctionTo_Shape036_11_1_Ed-JuctionFrom_Shape030_32_1_St" priority="14" type="highway.motorway" spreadType="center" shape="3472.25,103.64,-15.61 3449.16,101.91 3441.43,88.34,-23.42">
        <lane id="edgeId_Shape036_11_1_St_0" index="0" allow="private emergency authority army vip passenger hov taxi bus coach delivery truck trailer motorcycle evehicle custom1 custom2" speed="18.06" length="38.59" shape="3445.83,96.06,-21.86 3445.41,95.33,-23.42"/>
    </edge>
    <edge id="edgeId_Shape037_10_1_St" from="j1" to="j9" priority="14" type="highway.motorway" spreadType="center" shape="3472.03,107.73,-23.42 3426.51,107.66,-23.44">
        <lane id="edgeId_Shape037_10_1_St_0" index="0" allow="private emergency authority army vip passenger hov taxi bus coach delivery truck trailer motorcycle evehicle custom1 custom2" speed="18.06" length="45.76" shape="3443.46,107.69,-23.43 3426.66,107.66,-23.44"/>
    </edge>
    <edge id="edgeId_Shape038_23_1_St" from="JuctionTo_Shape026_21_1_Ed-JuctionFrom_Shape038_23_1_St" to="JuctionTo_Shape038_23_1_Ed-JuctionTo_Shape045_24_1_Ed-JuctionTo_Shape034_35_1_Ed-JuctionFrom_Shape023_36_1_St-JuctionFrom_Shape032_43_1_St" priority="14" type="highway.motorway" spreadType="center">
        <lane id="edgeId_Shape038_23_1_St_0" index="0" allow="private emergency authority army vip passenger hov taxi bus coach delivery truck trailer motorcycle evehicle custom1 custom2" speed="18.06" length="33.78" shape="3459.25,89.06,-23.42 3460.03,113.95,-23.42"/>
    </edge>
    <edge id="edgeId_Shape039_14_1_St" from="j1" to="j10" priority="14" type="highway.motorway" spreadType="center" shape="3472.02,111.34,-23.42 3425.71,111.06,-23.43">
        <lane id="edgeId_Shape039_14_1_St_0" index="0" allow="private emergency authority army vip passenger hov taxi bus coach delivery truck trailer motorcycle evehicle custom1 custom2" speed="18.06" length="46.79" shape="3443.44,111.17,-23.43 3425.85,111.06,-23.43"/>
    </edge>
    <edge id="edgeId_Shape040_20_1_St" from="JuctionFrom_Shape040_20_1_St-JuctionFrom_Shape029_31_1_St" to="JuctionTo_Shape040_20_1_Ed-JuctionTo_Shape033_34_1_Ed-JuctionTo_Shape027_44_1_Ed" priority="14" type="highway.motorway" spreadType="center">
        <lane id="edgeId_Shape040_20_1_St_0" index="0" allow="private emergency authority army vip passenger hov taxi bus coach delivery truck trailer motorcycle evehicle custom1 custom2" speed="18.06" length="34.99" shape="3446.10,121.85,-23.42 3445.26,93.79,-23.42"/>
    </edge>
    <edge id="edgeId_Shape041_9_1_St" from="JuctionTo_Shape011_1_1_Ed-JuctionFrom_Shape041_9_1_St" to="JuctionTo_Shape041_9_1_Ed-JuctionTo_Shape036_11_1_Ed-JuctionFrom_Shape030_32_1_St" priority="14" type="highway.motorway" spreadType="center">
        <lane id="edgeId_Shape041_9_1_St_0" index="0" allow="private emergency authority army vip passenger hov taxi bus coach delivery truck trailer motorcycle evehicle custom1 custom2" speed="18.06" length="34.79" shape="3442.76,122.98,-23.42 3441.74,96.38,-23.42"/>
    </edge>
    <edge id="edgeId_Shape042_25_1_St" from="JuctionTo_Shape019_19_1_Ed-JuctionFrom_Shape042_25_1_St" to="JuctionTo_Shape042_25_1_Ed-JuctionTo_Shape043_27_1_Ed-JuctionFrom_Shape020_33_1_St" priority="14" type="highway.motorway" spreadType="center" shape="3439.17,122.88,-23.42 3438.86,115.89,-23.42 3438.55,108.89,-23.42 3438.24,101.90,-23.42 3437.93,94.91,-23.42 3437.65,88.36,-23.42">
        <lane id="edgeId_Shape042_25_1_St_0" index="0" allow="private emergency authority army vip passenger hov taxi bus coach delivery truck trailer motorcycle evehicle custom1 custom2" speed="18.06" length="34.55" shape="3439.16,122.75,-23.42 3439.12,121.69,-23.42"/>
    </edge>
    <edge id="edgeId_Shape043_27_1_St" from="JuctionTo_Shape018_18_1_Ed-JuctionFrom_Shape043_27_1_St" to="JuctionTo_Shape042_25_1_Ed-JuctionTo_Shape043_27_1_Ed-JuctionFrom_Shape020_33_1_St" priority="14" type="highway.motorway" spreadType="center">
        <lane id="edgeId_Shape043_27_1_St_0" index="0" allow="private emergency authority army vip passenger hov taxi bus coach delivery truck trailer motorcycle evehicle custom1 custom2" speed="18.06" length="34.61" shape="3435.70,122.92,-23.42 3435.77,121.67,-23.42"/>
    </edge>
    <edge id="edgeId_Shape044_12_1_St" from="JuctionTo_Shape015_6_1_Ed-JuctionFrom_Shape044_12_1_St" to="JuctionTo_Shape044_12_1_Ed-JuctionFrom_Shape017_26_1_St" priority="14" type="highway.motorway" spreadType="center" shape="3431.71,122.98,-23.42 3432.44,114.53,-23.42 3434.09,107.28,-23.42 3435.21,96.24,-23.42 3434.61,88.26,-23.42">
        <lane id="edgeId_Shape044_12_1_St_0" index="0" allow="private emergency authority army vip passenger hov taxi bus coach delivery truck trailer motorcycle evehicle custom1 custom2" speed="18.06" length="35.02" shape="3431.71,122.98,-23.42 3432.44,114.53,-23.42 3434.09,107.28,-23.42 3435.21,96.24,-23.42 3434.61,88.26,-23.42"/>
    </edge>
    <edge id="edgeId_Shape045_24_1_St" from="j1" to="JuctionTo_Shape038_23_1_Ed-JuctionTo_Shape045_24_1_Ed-JuctionTo_Shape034_35_1_Ed-JuctionFrom_Shape023_36_1_St-JuctionFrom_Shape032_43_1_St" priority="14" type="highway.motorway" spreadType="center" shape="3472.21,115.00,-23.42 3463.62,116.46,-23.42 3460.31,122.72,-23.42">
        <lane id="edgeId_Shape045_24_1_St_0" index="0" allow="private emergency authority army vip passenger hov taxi bus coach delivery truck trailer motorcycle evehicle custom1 custom2" speed="18.06" length="21.93" shape="3471.01,115.20,-23.42 3465.45,116.15,-23.42"/>
    </edge>

    <junction id="JuctionFrom_Shape011_1_1_St" type="dead_end" x="3443.13" y="153.82" z="-23.42" incLanes="" intLanes="" shape="3444.73,153.80,-23.42 3441.53,153.84,-23.42"/>
    <junction id="JuctionFrom_Shape016_2_1_St" type="dead_end" x="3435.18" y="155.96" z="-23.42" incLanes="" intLanes="" shape="3436.78,155.94,-23.42 3433.58,155.98,-23.42"/>
    <junction id="JuctionFrom_Shape019_19_1_St" type="dead_end" x="3439.39" y="154.31" z="-23.42" incLanes="" intLanes="" shape="3440.99,154.30,-23.42 3437.79,154.32,-23.42"/>
    <junction id="JuctionFrom_Shape024_29_1_St" type="dead_end" x="3462.69" y="40.56" z="-23.42" incLanes="" intLanes="" shape="3461.09,40.55,-23.42 3464.29,40.57,-23.42"/>
    <junction id="JuctionFrom_Shape025_5_1_St" type="dead_end" x="3422.54" y="39.83" z="-23.42" incLanes="" intLanes="" shape="3420.94,39.82,-23.42 3424.14,39.84,-23.42"/>
    <junction id="JuctionFrom_Shape026_21_1_St" type="dead_end" x="3459.46" y="40.59" z="-23.42" incLanes="" intLanes="" shape="3457.86,40.58,-23.42 3461.06,40.60,-23.42"/>
    <junction id="JuctionFrom_Shape027_44_1_St" type="dead_end" x="3444.55" y="37.74" z="-23.42" incLanes="" intLanes="" shape="3442.95,37.76,-23.42 3446.15,37.72,-23.42"/>
    <junction id="JuctionFrom_Shape040_20_1_St-JuctionFrom_Shape029_31_1_St" type="dead_end" x="3446.14" y="123.35" z="-23.42" incLanes="" intLanes="" shape="3444.58,124.89,-23.42 3447.78,124.81,-23.42 3447.69,121.80,-23.42 3444.50,121.90,-23.42"/>
    <junction id="JuctionTo_Shape011_1_1_Ed-JuctionFrom_Shape041_9_1_St" type="priority" x="3442.76" y="123.10" z="-23.42" incLanes="edgeId_Shape011_1_1_St_0" intLanes="" shape="3441.16,123.23,-23.42 3444.36,123.21,-23.42 3444.35,122.92,-23.42 3441.16,123.04,-23.42">
        <request index="0" response="0" foes="0"/>
    </junction>
    <junction id="JuctionTo_Shape012_37_1_Ed" type="dead_end" x="3380.51" y="103.56" z="-23.66" incLanes="edgeId_Shape012_37_1_St_0" intLanes="" shape="3380.48,105.16,-23.66 3380.54,101.96,-23.66"/>
    <junction id="JuctionTo_Shape013_22_1_Ed" type="dead_end" x="3378.55" y="110.55" z="-23.68" incLanes="edgeId_Shape028_42_1_St_0" intLanes="" shape="3378.54,112.15,-23.68 3378.56,108.95,-23.68"/>
    <junction id="JuctionTo_Shape014_38_1_Ed" type="dead_end" x="3378.46" y="107.18" z="-23.68" incLanes="edgeId_Shape014_38_1_St_0" intLanes="" shape="3378.42,108.78,-23.68 3378.50,105.58,-23.68"/>
    <junction id="JuctionTo_Shape015_6_1_Ed-JuctionFrom_Shape044_12_1_St" type="priority" x="3431.71" y="122.98" z="-23.42" incLanes="edgeId_Shape015_6_1_St_0" intLanes="" shape="3430.11,123.11,-23.42 3433.31,123.03,-23.42 3430.12,122.75,-23.42 3430.11,122.89,-23.42 3430.11,122.98,-23.42">