<?xml version="1.0" encoding="UTF-8"?>

<!-- generated on 2022-06-23 11:10:51 by Eclipse SUMO netedit Version 1.10.0
<configuration xmlns:xsi="http://www.w3.org/2001/XMLSchema-instance" xsi:noNamespaceSchemaLocation="http://sumo.dlr.de/xsd/netconvertConfiguration.xsd">

    <input>
        <sumo-net-file value="D:\@Tll_Training\SUMO_Projects\HSKmultiLanesTLStest\spline.net.xml"/>
    </input>

    <output>
        <output-file value="D:\@Tll_Training\SUMO_Projects\HSKmultiLanesTLStest\spline.net.xml"/>
    </output>

    <processing>
        <geometry.min-radius.fix.railways value="false"/>
        <geometry.max-grade.fix value="false"/>
        <offset.disable-normalization value="true"/>
        <lefthand value="false"/>
    </processing>

    <junctions>
        <no-turnarounds value="true"/>
        <junctions.corner-detail value="5"/>
        <junctions.limit-turn-speed value="5.5"/>
        <rectangular-lane-cut value="false"/>
    </junctions>

    <pedestrian>
        <walkingareas value="false"/>
    </pedestrian>

    <netedit>
        <route-files value="D:\@Tll_Training\SUMO_Projects\HSKmultiLanesTLStest\spline.rou.xml"/>
    </netedit>

    <report>
        <aggregate-warnings value="5"/>
    </report>

</configuration>
-->

<routes xmlns:xsi="http://www.w3.org/2001/XMLSchema-instance" xsi:noNamespaceSchemaLocation="http://sumo.dlr.de/xsd/routes_file.xsd">
    <trip id="0" depart="0.00" from="edgeId_Shape011_2_1_St" to="edgeId_Shape016_35_1_St" via="edgeId_Shape012_4_1_St edgeId_Shape038_15_1_St"/>
    <flow id="flow_0" begin="0.00" departLane="0" from="e3" to="edgeId_Shape002_33_1_St" via="edgeId_Shape021_12_1_St" end="3600.00" number="1800"/>
    <flow id="flow_5" begin="0.00" end="3600.00" number="1800">
        <route edges="e6" color="cyan"/>
    </flow>
    <trip id="1" depart="1.00" from="edgeId_Shape011_2_1_St" to="edgeId_Shape010_17_1_St" via="edgeId_Shape008_3_1_St edgeId_Shape037_8_1_St"/>
    <flow id="flow_1" begin="1.00" departLane="1" from="e3" to="edgeId_Shape016_35_1_St" via="edgeId_Shape023_11_1_St" end="3600.00" number="1800"/>
    <trip id="2" depart="2.00" from="edgeId_Shape007_7_1_St" to="edgeId_Shape006_37_1_St" via="edgeId_Shape036_27_1_St"/>
    <flow id="flow_2" begin="2.00" departLane="2" from="e3" to="edgeId_Shape015_40_1_St" via="edgeId_Shape024_6_1_St" end="3600.00" number="1800"/>
    <flow id="flow_4" begin="3.00" departLane="3" from="e3" to="edgeId_Shape010_17_1_St" via="edgeId_Shape025_5_1_St" end="3600.00" number="1800"/>
    <flow id="flow_3" begin="4.00" departLane="4" from="e3" to="edgeId_Shape006_37_1_St" via="edgeId_Shape022_29_1_St" end="3600.00" number="1800"/>
    <trip id="5" depart="5.00" from="edgeId_Shape027_13_1_St" to="edgeId_Shape032_36_1_St"/>
    <trip id="6" depart="6.00" from="edgeId_Shape031_14_1_St" to="edgeId_Shape002_33_1_St" via="edgeId_Shape035_31_1_St"/>
    <trip id="8" depart="8.00" from="edgeId_Shape019_18_1_St" to="edgeId_Shape039_32_1_St"/>
    <trip id="9" depart="9.00" from="edgeId_Shape028_20_1_St" to="edgeId_Shape040_38_1_St"/>
    <trip id="12" depart="12.00" from="edgeId_Shape026_24_1_St" to="edgeId_Shape018_25_1_St"/>
    <trip id="15" depart="15.00" from="edgeId_Shape030_34_1_St" to="edgeId_Shape016_35_1_St" via="edgeId_Shape034_19_1_St"/>
    <trip id="16" depart="16.00" from="edgeId_Shape029_39_1_St" to="edgeId_Shape015_40_1_St" via="edgeId_Shape033_22_1_St"/>
</routes>
