<?xml version="1.0" encoding="UTF-8"?>

<!-- generated on 2022-06-23 11:11:11 by Eclipse SUMO netedit Version 1.10.0
<configuration xmlns:xsi="http://www.w3.org/2001/XMLSchema-instance" xsi:noNamespaceSchemaLocation="http://sumo.dlr.de/xsd/netconvertConfiguration.xsd">

    <input>
        <sumo-net-file value="D:\@Tll_Training\SUMO_Projects\HSKmultiLanesTLStest\spline.net.xml"/>
    </input>

    <output>
        <output-file value="D:\@Tll_Training\SUMO_Projects\HSKmultiLanesTLStest\spline.net.xml"/>
    </output>

    <processing>
        <geometry.min-radius.fix.railways value="false"/>
        <geometry.max-grade.fix value="false"/>
        <offset.disable-normalization value="true"/>
        <lefthand value="false"/>
    </processing>

    <junctions>
        <no-turnarounds value="true"/>
        <junctions.corner-detail value="5"/>
        <junctions.limit-turn-speed value="5.5"/>
        <rectangular-lane-cut value="false"/>
    </junctions>

    <pedestrian>
        <walkingareas value="false"/>
    </pedestrian>

    <netedit>
        <route-files value="D:\@Tll_Training\SUMO_Projects\HSKmultiLanesTLStest\spline.rou.xml"/>
    </netedit>

    <report>
        <aggregate-warnings value="5"/>
    </report>

</configuration>
-->

<net version="1.9" junctionCornerDetail="5" limitTurnSpeed="5.50" xmlns:xsi="http://www.w3.org/2001/XMLSchema-instance" xsi:noNamespaceSchemaLocation="http://sumo.dlr.de/xsd/net_file.xsd">

    <location netOffset="-274535.29,-4297431.43" convBoundary="3335.52,38.38,3579.18,157.06" origBoundary="-77.596256,38.797200,-77.215237,38.890060" projParameter="+proj=utm +zone=18 +ellps=WGS84 +datum=WGS84 +units=m +no_defs"/>

    <edge id=":JuctionTo_Shape011_2_1_Ed-JuctionFrom_Shape008_3_1_St-JuctionFrom_Shape012_4_1_St_0" function="internal">
        <lane id=":JuctionTo_Shape011_2_1_Ed-JuctionFrom_Shape008_3_1_St-JuctionFrom_Shape012_4_1_St_0_0" index="0" allow="private emergency authority army vip passenger hov taxi bus coach delivery truck trailer motorcycle evehicle custom1 custom2" speed="18.06" length="12.66" shape="3435.14,152.61,-23.42 3434.76,149.27,-23.42 3433.95,146.43,-23.42 3433.06,143.60,-23.42 3432.44,140.27,-23.42"/>
    </edge>
    <edge id=":JuctionTo_Shape011_2_1_Ed-JuctionFrom_Shape008_3_1_St-JuctionFrom_Shape012_4_1_St_1" function="internal">
        <lane id=":JuctionTo_Shape011_2_1_Ed-JuctionFrom_Shape008_3_1_St-JuctionFrom_Shape012_4_1_St_1_0" index="0" allow="private emergency authority army vip passenger hov taxi bus coach delivery truck trailer motorcycle evehicle custom1 custom2" speed="18.06" length="12.58" shape="3435.14,152.61,-23.42 3435.95,140.05,-23.42"/>
    </edge>
    <edge id=":JuctionTo_Shape021_12_1_Ed-JuctionTo_Shape035_31_1_Ed-JuctionFrom_Shape002_33_1_St_0" function="internal">
        <lane id=":JuctionTo_Shape021_12_1_Ed-JuctionTo_Shape035_31_1_Ed-JuctionFrom_Shape002_33_1_St_0_0" index="0" allow="private emergency authority army vip passenger hov taxi bus coach delivery truck trailer motorcycle evehicle custom1 custom2" speed="9.12" length="9.94" shape="3465.55,119.04,-23.42 3463.64,120.71,-23.42 3462.27,122.68,-23.42 3461.45,124.95,-23.42 3461.16,127.53,-23.42"/>
    </edge>
    <edge id=":JuctionTo_Shape021_12_1_Ed-JuctionTo_Shape035_31_1_Ed-JuctionFrom_Shape002_33_1_St_1" function="internal">
        <lane id=":JuctionTo_Shape021_12_1_Ed-JuctionTo_Shape035_31_1_Ed-JuctionFrom_Shape002_33_1_St_1_0" index="0" allow="private emergency authority army vip passenger hov taxi bus coach delivery truck trailer motorcycle evehicle custom1 custom2" speed="18.06" length="9.62" shape="3461.45,117.91,-23.42 3461.16,127.53,-23.42"/>
    </edge>
    <edge id=":JuctionTo_Shape023_11_1_Ed-JuctionTo_Shape038_15_1_Ed-JuctionTo_Shape034_19_1_Ed-JuctionFrom_Shape016_35_1_St_0" function="internal">
        <lane id=":JuctionTo_Shape023_11_1_Ed-JuctionTo_Shape038_15_1_Ed-JuctionTo_Shape034_19_1_Ed-JuctionFrom_Shape016_35_1_St_0_0" index="0" allow="private emergency authority army vip passenger hov taxi bus coach delivery truck trailer motorcycle evehicle custom1 custom2" speed="14.32" length="16.26" shape="3427.27,115.31,-23.42 3423.98,113.22,-23.43 3420.07,111.81,-23.43 3415.92,111.01,-23.44 3411.95,110.74,-23.45"/>
    </edge>
    <edge id=":JuctionTo_Shape023_11_1_Ed-JuctionTo_Shape038_15_1_Ed-JuctionTo_Shape034_19_1_Ed-JuctionFrom_Shape016_35_1_St_1" function="internal">
        <lane id=":JuctionTo_Shape023_11_1_Ed-JuctionTo_Shape038_15_1_Ed-JuctionTo_Shape034_19_1_Ed-JuctionFrom_Shape016_35_1_St_1_0" index="0" allow="private emergency authority army vip passenger hov taxi bus coach delivery truck trailer motorcycle evehicle custom1 custom2" speed="18.06" length="31.70" shape="3443.64,111.09,-23.42 3411.95,110.74,-23.45"/>
    </edge>
    <edge id=":JuctionTo_Shape023_11_1_Ed-JuctionTo_Shape038_15_1_Ed-JuctionTo_Shape034_19_1_Ed-JuctionFrom_Shape016_35_1_St_2" function="internal">
        <lane id=":JuctionTo_Shape023_11_1_Ed-JuctionTo_Shape038_15_1_Ed-JuctionTo_Shape034_19_1_Ed-JuctionFrom_Shape016_35_1_St_2_0" index="0" allow="private emergency authority army vip passenger hov taxi bus coach delivery truck trailer motorcycle evehicle custom1 custom2" speed="18.06" length="31.83" shape="3443.54,107.26,-23.42 3437.33,108.54,-23.43 3427.86,109.66,-23.43 3418.33,110.45,-23.44 3411.95,110.74,-23.45"/>
    </edge>
    <edge id=":JuctionTo_Shape024_6_1_Ed-JuctionTo_Shape033_22_1_Ed-JuctionFrom_Shape015_40_1_St_0" function="internal">
        <lane id=":JuctionTo_Shape024_6_1_Ed-JuctionTo_Shape033_22_1_Ed-JuctionFrom_Shape015_40_1_St_0_0" index="0" allow="private emergency authority army vip passenger hov taxi bus coach delivery truck trailer motorcycle evehicle custom1 custom2" speed="18.06" length="29.18" shape="3441.07,107.69,-23.42 3411.89,107.64,-23.45"/>
    </edge>
    <edge id=":JuctionTo_Shape024_6_1_Ed-JuctionTo_Shape033_22_1_Ed-JuctionFrom_Shape015_40_1_St_1" function="internal">
        <lane id=":JuctionTo_Shape024_6_1_Ed-JuctionTo_Shape033_22_1_Ed-JuctionFrom_Shape015_40_1_St_1_0" index="0" allow="private emergency authority army vip passenger hov taxi bus coach delivery truck trailer motorcycle evehicle custom1 custom2" speed="18.06" length="29.24" shape="3440.77,103.70,-23.42 3435.08,105.27,-23.43 3426.53,106.53,-23.44 3417.88,107.37,-23.45 3411.89,107.64,-23.45"/>
    </edge>
    <edge id=":JuctionTo_Shape025_5_1_Ed-JuctionFrom_Shape009_23_1_St-JuctionFrom_Shape017_26_1_St_0" function="internal">
        <lane id=":JuctionTo_Shape025_5_1_Ed-JuctionFrom_Shape009_23_1_St-JuctionFrom_Shape017_26_1_St_0_0" index="0" allow="private emergency authority army vip passenger hov taxi bus coach delivery truck trailer motorcycle evehicle custom1 custom2" speed="18.06" length="19.13" shape="3461.19,103.75,-23.42 3442.06,103.91,-23.42"/>
    </edge>
    <edge id=":JuctionTo_Shape025_5_1_Ed-JuctionFrom_Shape009_23_1_St-JuctionFrom_Shape017_26_1_St_1" function="internal">
        <lane id=":JuctionTo_Shape025_5_1_Ed-JuctionFrom_Shape009_23_1_St-JuctionFrom_Shape017_26_1_St_1_0" index="0" allow="private emergency authority army vip passenger hov taxi bus coach delivery truck trailer motorcycle evehicle custom1 custom2" speed="18.06" length="19.38" shape="3461.19,103.75,-23.42 3456.73,103.50,-23.42 3451.50,102.73,-23.42 3446.41,101.45,-23.42 3442.40,99.67,-23.42"/>
    </edge>
    <edge id=":JuctionTo_Shape026_24_1_Ed-JuctionFrom_Shape018_25_1_St-JuctionTo_Shape017_26_1_Ed_0" function="internal">
        <lane id=":JuctionTo_Shape026_24_1_Ed-JuctionFrom_Shape018_25_1_St-JuctionTo_Shape017_26_1_Ed_0_0" index="0" allow="private emergency authority army vip passenger hov taxi bus coach delivery truck trailer motorcycle evehicle custom1 custom2" speed="18.06" length="13.97" shape="3417.87,103.98,-23.42 3403.90,103.94,-23.51"/>
    </edge>
    <edge id=":JuctionTo_Shape026_24_1_Ed-JuctionFrom_Shape018_25_1_St-JuctionTo_Shape017_26_1_Ed_1" function="internal">
        <lane id=":JuctionTo_Shape026_24_1_Ed-JuctionFrom_Shape018_25_1_St-JuctionTo_Shape017_26_1_Ed_1_0" index="0" allow="private emergency authority army vip passenger hov taxi bus coach delivery truck trailer motorcycle evehicle custom1 custom2" speed="14.53" length="14.28" shape="3417.28,99.72,-23.43 3414.20,101.64,-23.45 3410.96,102.96,-23.47 3407.53,103.71,-23.49 3403.90,103.94,-23.51"/>
    </edge>
    <edge id=":JuctionTo_Shape036_27_1_Ed-JuctionTo_Shape022_29_1_Ed-JuctionFrom_Shape006_37_1_St_0" function="internal">
        <lane id=":JuctionTo_Shape036_27_1_Ed-JuctionTo_Shape022_29_1_Ed-JuctionFrom_Shape006_37_1_St_0_0" index="0" allow="private emergency authority army vip passenger hov taxi bus coach delivery truck trailer motorcycle evehicle custom1 custom2" speed="18.06" length="8.26" shape="3437.88,94.59,-23.42 3437.65,86.33,-23.42"/>
    </edge>
    <edge id=":JuctionTo_Shape036_27_1_Ed-JuctionTo_Shape022_29_1_Ed-JuctionFrom_Shape006_37_1_St_1" function="internal">
        <lane id=":JuctionTo_Shape036_27_1_Ed-JuctionTo_Shape022_29_1_Ed-JuctionFrom_Shape006_37_1_St_1_0" index="0" allow="private emergency authority army vip passenger hov taxi bus coach delivery truck trailer motorcycle evehicle custom1 custom2" speed="9.07" length="8.09" shape="3441.81,93.03,-23.42 3439.99,91.20,-23.42 3438.69,89.48,-23.42 3437.91,87.85,-23.42 3437.65,86.33,-23.42"/>
    </edge>
    <edge id=":JuctionTo_Shape037_8_1_Ed-JuctionFrom_Shape010_17_1_St-JuctionTo_Shape009_23_1_Ed_0" function="internal">
        <lane id=":JuctionTo_Shape037_8_1_Ed-JuctionFrom_Shape010_17_1_St-JuctionTo_Shape009_23_1_Ed_0_0" index="0" allow="private emergency authority army vip passenger hov taxi bus coach delivery truck trailer motorcycle evehicle custom1 custom2" speed="18.06" length="11.53" shape="3434.98,98.01,-23.42 3434.60,86.48,-23.42"/>
    </edge>
    <edge id=":JuctionTo_Shape037_8_1_Ed-JuctionFrom_Shape010_17_1_St-JuctionTo_Shape009_23_1_Ed_1" function="internal">
        <lane id=":JuctionTo_Shape037_8_1_Ed-JuctionFrom_Shape010_17_1_St-JuctionTo_Shape009_23_1_Ed_1_0" index="0" allow="private emergency authority army vip passenger hov taxi bus coach delivery truck trailer motorcycle evehicle custom1 custom2" speed="11.64" length="11.72" shape="3439.12,96.87,-23.42 3436.97,94.42,-23.42 3435.58,92.19,-23.42 3434.83,89.70,-23.42 3434.60,86.48,-23.42"/>
    </edge>
    <edge id=":cluster_JuctionFrom_Shape033_22_1_St-JuctionTo_Shape029_39_1_Ed_JuctionFrom_Shape034_19_1_St-JuctionTo_Shape030_34_1_Ed_JuctionTo_Shape027_13_1_Ed-JuctionFrom_Shape032_36_1_St_JuctionTo_Shape031_14_1_Ed-JuctionFrom_Shape035_31_1_St_0" function="internal">
        <lane id=":cluster_JuctionFrom_Shape033_22_1_St-JuctionTo_Shape029_39_1_Ed_JuctionFrom_Shape034_19_1_St-JuctionTo_Shape030_34_1_Ed_JuctionTo_Shape027_13_1_Ed-JuctionFrom_Shape032_36_1_St_JuctionTo_Shape031_14_1_Ed-JuctionFrom_Shape035_31_1_St_0_0" index="0" allow="private emergency authority army vip passenger hov taxi bus coach delivery truck trailer motorcycle evehicle custom1 custom2" speed="18.06" length="11.18" shape="3451.40,87.13,-23.42 3462.44,88.88,-23.42"/>
    </edge>
    <edge id=":cluster_JuctionFrom_Shape033_22_1_St-JuctionTo_Shape029_39_1_Ed_JuctionFrom_Shape034_19_1_St-JuctionTo_Shape030_34_1_Ed_JuctionTo_Shape027_13_1_Ed-JuctionFrom_Shape032_36_1_St_JuctionTo_Shape031_14_1_Ed-JuctionFrom_Shape035_31_1_St_1" function="internal">
        <lane id=":cluster_JuctionFrom_Shape033_22_1_St-JuctionTo_Shape029_39_1_Ed_JuctionFrom_Shape034_19_1_St-JuctionTo_Shape030_34_1_Ed_JuctionTo_Shape027_13_1_Ed-JuctionFrom_Shape032_36_1_St_JuctionTo_Shape031_14_1_Ed-JuctionFrom_Shape035_31_1_St_1_0" index="0" allow="private emergency authority army vip passenger hov taxi bus coach delivery truck trailer motorcycle evehicle custom1 custom2" speed="18.06" length="8.03" shape="3451.40,87.13,-23.42 3459.25,88.79,-23.42"/>
    </edge>
    <edge id=":cluster_JuctionFrom_Shape033_22_1_St-JuctionTo_Shape029_39_1_Ed_JuctionFrom_Shape034_19_1_St-JuctionTo_Shape030_34_1_Ed_JuctionTo_Shape027_13_1_Ed-JuctionFrom_Shape032_36_1_St_JuctionTo_Shape031_14_1_Ed-JuctionFrom_Shape035_31_1_St_2" function="internal">
        <lane id=":cluster_JuctionFrom_Shape033_22_1_St-JuctionTo_Shape029_39_1_Ed_JuctionFrom_Shape034_19_1_St-JuctionTo_Shape030_34_1_Ed_JuctionTo_Shape027_13_1_Ed-JuctionFrom_Shape032_36_1_St_JuctionTo_Shape031_14_1_Ed-JuctionFrom_Shape035_31_1_St_2_0" index="0" allow="private emergency authority army vip passenger hov taxi bus coach delivery truck trailer motorcycle evehicle custom1 custom2" speed="18.06" length="0.91" shape="3451.40,87.13,-23.42 3452.24,87.48,-23.42"/>
    </edge>
    <edge id=":cluster_JuctionFrom_Shape033_22_1_St-JuctionTo_Shape029_39_1_Ed_JuctionFrom_Shape034_19_1_St-JuctionTo_Shape030_34_1_Ed_JuctionTo_Shape027_13_1_Ed-JuctionFrom_Shape032_36_1_St_JuctionTo_Shape031_14_1_Ed-JuctionFrom_Shape035_31_1_St_3" function="internal">
        <lane id=":cluster_JuctionFrom_Shape033_22_1_St-JuctionTo_Shape029_39_1_Ed_JuctionFrom_Shape034_19_1_St-JuctionTo_Shape030_34_1_Ed_JuctionTo_Shape027_13_1_Ed-JuctionFrom_Shape032_36_1_St_JuctionTo_Shape031_14_1_Ed-JuctionFrom_Shape035_31_1_St_3_0" index="0" allow="private emergency authority army vip passenger hov taxi bus coach delivery truck trailer motorcycle evehicle custom1 custom2" speed="18.06" length="0.98" shape="3451.40,87.13,-23.42 3451.34,88.11,-23.42"/>
    </edge>
    <edge id=":cluster_JuctionFrom_Shape033_22_1_St-JuctionTo_Shape029_39_1_Ed_JuctionFrom_Shape034_19_1_St-JuctionTo_Shape030_34_1_Ed_JuctionTo_Shape027_13_1_Ed-JuctionFrom_Shape032_36_1_St_JuctionTo_Shape031_14_1_Ed-JuctionFrom_Shape035_31_1_St_16" function="internal">
        <lane id=":cluster_JuctionFrom_Shape033_22_1_St-JuctionTo_Shape029_39_1_Ed_JuctionFrom_Shape034_19_1_St-JuctionTo_Shape030_34_1_Ed_JuctionTo_Shape027_13_1_Ed-JuctionFrom_Shape032_36_1_St_JuctionTo_Shape031_14_1_Ed-JuctionFrom_Shape035_31_1_St_16_0" index="0" allow="private emergency authority army vip passenger hov taxi bus coach delivery truck trailer motorcycle evehicle custom1 custom2" speed="18.06" length="3.19" shape="3452.24,87.48,-23.42 3455.19,88.70,-23.42"/>
    </edge>
    <edge id=":cluster_JuctionFrom_Shape033_22_1_St-JuctionTo_Shape029_39_1_Ed_JuctionFrom_Shape034_19_1_St-JuctionTo_Shape030_34_1_Ed_JuctionTo_Shape027_13_1_Ed-JuctionFrom_Shape032_36_1_St_JuctionTo_Shape031_14_1_Ed-JuctionFrom_Shape035_31_1_St_17" function="internal">
        <lane id=":cluster_JuctionFrom_Shape033_22_1_St-JuctionTo_Shape029_39_1_Ed_JuctionFrom_Shape034_19_1_St-JuctionTo_Shape030_34_1_Ed_JuctionTo_Shape027_13_1_Ed-JuctionFrom_Shape032_36_1_St_JuctionTo_Shape031_14_1_Ed-JuctionFrom_Shape035_31_1_St_17_0" index="0" allow="private emergency authority army vip passenger hov taxi bus coach delivery truck trailer motorcycle evehicle custom1 custom2" speed="18.06" length="2.32" shape="3451.34,88.11,-23.42 3451.26,88.77,-23.42 3451.13,89.43,-23.42 3450.89,90.38,-23.42"/>
    </edge>
    <edge id=":cluster_JuctionFrom_Shape033_22_1_St-JuctionTo_Shape029_39_1_Ed_JuctionFrom_Shape034_19_1_St-JuctionTo_Shape030_34_1_Ed_JuctionTo_Shape027_13_1_Ed-JuctionFrom_Shape032_36_1_St_JuctionTo_Shape031_14_1_Ed-JuctionFrom_Shape035_31_1_St_4" function="internal">
        <lane id=":cluster_JuctionFrom_Shape033_22_1_St-JuctionTo_Shape029_39_1_Ed_JuctionFrom_Shape034_19_1_St-JuctionTo_Shape030_34_1_Ed_JuctionTo_Shape027_13_1_Ed-JuctionFrom_Shape032_36_1_St_JuctionTo_Shape031_14_1_Ed-JuctionFrom_Shape035_31_1_St_4_0" index="0" allow="private emergency authority army vip passenger hov taxi bus coach delivery truck trailer motorcycle evehicle custom1 custom2" speed="18.06" length="1.08" shape="3462.47,87.80,-23.42 3462.44,88.88,-23.42"/>
    </edge>
    <edge id=":cluster_JuctionFrom_Shape033_22_1_St-JuctionTo_Shape029_39_1_Ed_JuctionFrom_Shape034_19_1_St-JuctionTo_Shape030_34_1_Ed_JuctionTo_Shape027_13_1_Ed-JuctionFrom_Shape032_36_1_St_JuctionTo_Shape031_14_1_Ed-JuctionFrom_Shape035_31_1_St_5" function="internal">
        <lane id=":cluster_JuctionFrom_Shape033_22_1_St-JuctionTo_Shape029_39_1_Ed_JuctionFrom_Shape034_19_1_St-JuctionTo_Shape030_34_1_Ed_JuctionTo_Shape027_13_1_Ed-JuctionFrom_Shape032_36_1_St_JuctionTo_Shape031_14_1_Ed-JuctionFrom_Shape035_31_1_St_5_0" index="0" allow="private emergency authority army vip passenger hov taxi bus coach delivery truck trailer motorcycle evehicle custom1 custom2" speed="18.06" length="3.36" shape="3462.47,87.80,-23.42 3459.25,88.79,-23.42"/>
    </edge>
    <edge id=":cluster_JuctionFrom_Shape033_22_1_St-JuctionTo_Shape029_39_1_Ed_JuctionFrom_Shape034_19_1_St-JuctionTo_Shape030_34_1_Ed_JuctionTo_Shape027_13_1_Ed-JuctionFrom_Shape032_36_1_St_JuctionTo_Shape031_14_1_Ed-JuctionFrom_Shape035_31_1_St_6" function="internal">
        <lane id=":cluster_JuctionFrom_Shape033_22_1_St-JuctionTo_Shape029_39_1_Ed_JuctionFrom_Shape034_19_1_St-JuctionTo_Shape030_34_1_Ed_JuctionTo_Shape027_13_1_Ed-JuctionFrom_Shape032_36_1_St_JuctionTo_Shape031_14_1_Ed-JuctionFrom_Shape035_31_1_St_6_0" index="0" allow="private emergency authority army vip passenger hov taxi bus coach delivery truck trailer motorcycle evehicle custom1 custom2" speed="18.06" length="7.33" shape="3462.47,87.80,-23.42 3455.19,88.70,-23.42"/>
    </edge>
    <edge id=":cluster_JuctionFrom_Shape033_22_1_St-JuctionTo_Shape029_39_1_Ed_JuctionFrom_Shape034_19_1_St-JuctionTo_Shape030_34_1_Ed_JuctionTo_Shape027_13_1_Ed-JuctionFrom_Shape032_36_1_St_JuctionTo_Shape031_14_1_Ed-JuctionFrom_Shape035_31_1_St_7" function="internal">
        <lane id=":cluster_JuctionFrom_Shape033_22_1_St-JuctionTo_Shape029_39_1_Ed_JuctionFrom_Shape034_19_1_St-JuctionTo_Shape030_34_1_Ed_JuctionTo_Shape027_13_1_Ed-JuctionFrom_Shape032_36_1_St_JuctionTo_Shape031_14_1_Ed-JuctionFrom_Shape035_31_1_St_7_0" index="0" allow="private emergency authority army vip passenger hov taxi bus coach delivery truck trailer motorcycle evehicle custom1 custom2" speed="18.06" length="11.86" shape="3462.47,87.80,-23.42 3450.89,90.38,-23.42"/>
    </edge>
    <edge id=":cluster_JuctionFrom_Shape033_22_1_St-JuctionTo_Shape029_39_1_Ed_JuctionFrom_Shape034_19_1_St-JuctionTo_Shape030_34_1_Ed_JuctionTo_Shape027_13_1_Ed-JuctionFrom_Shape032_36_1_St_JuctionTo_Shape031_14_1_Ed-JuctionFrom_Shape035_31_1_St_8" function="internal">
        <lane id=":cluster_JuctionFrom_Shape033_22_1_St-JuctionTo_Shape029_39_1_Ed_JuctionFrom_Shape034_19_1_St-JuctionTo_Shape030_34_1_Ed_JuctionTo_Shape027_13_1_Ed-JuctionFrom_Shape032_36_1_St_JuctionTo_Shape031_14_1_Ed-JuctionFrom_Shape035_31_1_St_8_0" index="0" allow="private emergency authority army vip passenger hov taxi bus coach delivery truck trailer motorcycle evehicle custom1 custom2" speed="18.06" length="3.42" shape="3459.27,87.61,-23.42 3462.44,88.88,-23.42"/>
    </edge>
    <edge id=":cluster_JuctionFrom_Shape033_22_1_St-JuctionTo_Shape029_39_1_Ed_JuctionFrom_Shape034_19_1_St-JuctionTo_Shape030_34_1_Ed_JuctionTo_Shape027_13_1_Ed-JuctionFrom_Shape032_36_1_St_JuctionTo_Shape031_14_1_Ed-JuctionFrom_Shape035_31_1_St_9" function="internal">
        <lane id=":cluster_JuctionFrom_Shape033_22_1_St-JuctionTo_Shape029_39_1_Ed_JuctionFrom_Shape034_19_1_St-JuctionTo_Shape030_34_1_Ed_JuctionTo_Shape027_13_1_Ed-JuctionFrom_Shape032_36_1_St_JuctionTo_Shape031_14_1_Ed-JuctionFrom_Shape035_31_1_St_9_0" index="0" allow="private emergency authority army vip passenger hov taxi bus coach delivery truck trailer motorcycle evehicle custom1 custom2" speed="18.06" length="1.19" shape="3459.27,87.61,-23.42 3459.25,88.79,-23.42"/>
    </edge>
    <edge id=":cluster_JuctionFrom_Shape033_22_1_St-JuctionTo_Shape029_39_1_Ed_JuctionFrom_Shape034_19_1_St-JuctionTo_Shape030_34_1_Ed_JuctionTo_Shape027_13_1_Ed-JuctionFrom_Shape032_36_1_St_JuctionTo_Shape031_14_1_Ed-JuctionFrom_Shape035_31_1_St_10" function="internal">
        <lane id=":cluster_JuctionFrom_Shape033_22_1_St-JuctionTo_Shape029_39_1_Ed_JuctionFrom_Shape034_19_1_St-JuctionTo_Shape030_34_1_Ed_JuctionTo_Shape027_13_1_Ed-JuctionFrom_Shape032_36_1_St_JuctionTo_Shape031_14_1_Ed-JuctionFrom_Shape035_31_1_St_10_0" index="0" allow="private emergency authority army vip passenger hov taxi bus coach delivery truck trailer motorcycle evehicle custom1 custom2" speed="18.06" length="4.22" shape="3459.27,87.61,-23.42 3455.19,88.70,-23.42"/>
    </edge>
    <edge id=":cluster_JuctionFrom_Shape033_22_1_St-JuctionTo_Shape029_39_1_Ed_JuctionFrom_Shape034_19_1_St-JuctionTo_Shape030_34_1_Ed_JuctionTo_Shape027_13_1_Ed-JuctionFrom_Shape032_36_1_St_JuctionTo_Shape031_14_1_Ed-JuctionFrom_Shape035_31_1_St_11" function="internal">
        <lane id=":cluster_JuctionFrom_Shape033_22_1_St-JuctionTo_Shape029_39_1_Ed_JuctionFrom_Shape034_19_1_St-JuctionTo_Shape030_34_1_Ed_JuctionTo_Shape027_13_1_Ed-JuctionFrom_Shape032_36_1_St_JuctionTo_Shape031_14_1_Ed-JuctionFrom_Shape035_31_1_St_11_0" index="0" allow="private emergency authority army vip passenger hov taxi bus coach delivery truck trailer motorcycle evehicle custom1 custom2" speed="18.06" length="8.82" shape="3459.27,87.61,-23.42 3450.89,90.38,-23.42"/>
    </edge>
    <edge id=":cluster_JuctionFrom_Shape033_22_1_St-JuctionTo_Shape029_39_1_Ed_JuctionFrom_Shape034_19_1_St-JuctionTo_Shape030_34_1_Ed_JuctionTo_Shape027_13_1_Ed-JuctionFrom_Shape032_36_1_St_JuctionTo_Shape031_14_1_Ed-JuctionFrom_Shape035_31_1_St_12" function="internal">
        <lane id=":cluster_JuctionFrom_Shape033_22_1_St-JuctionTo_Shape029_39_1_Ed_JuctionFrom_Shape034_19_1_St-JuctionTo_Shape030_34_1_Ed_JuctionTo_Shape027_13_1_Ed-JuctionFrom_Shape032_36_1_St_JuctionTo_Shape031_14_1_Ed-JuctionFrom_Shape035_31_1_St_12_0" index="0" allow="private emergency authority army vip passenger hov taxi bus coach delivery truck trailer motorcycle evehicle custom1 custom2" speed="18.06" length="7.40" shape="3455.20,87.36,-23.42 3462.44,88.88,-23.42"/>
    </edge>
    <edge id=":cluster_JuctionFrom_Shape033_22_1_St-JuctionTo_Shape029_39_1_Ed_JuctionFrom_Shape034_19_1_St-JuctionTo_Shape030_34_1_Ed_JuctionTo_Shape027_13_1_Ed-JuctionFrom_Shape032_36_1_St_JuctionTo_Shape031_14_1_Ed-JuctionFrom_Shape035_31_1_St_13" function="internal">
        <lane id=":cluster_JuctionFrom_Shape033_22_1_St-JuctionTo_Shape029_39_1_Ed_JuctionFrom_Shape034_19_1_St-JuctionTo_Shape030_34_1_Ed_JuctionTo_Shape027_13_1_Ed-JuctionFrom_Shape032_36_1_St_JuctionTo_Shape031_14_1_Ed-JuctionFrom_Shape035_31_1_St_13_0" index="0" allow="private emergency authority army vip passenger hov taxi bus coach delivery truck trailer motorcycle evehicle custom1 custom2" speed="18.06" length="4.30" shape="3455.20,87.36,-23.42 3459.25,88.79,-23.42"/>
    </edge>
    <edge id=":cluster_JuctionFrom_Shape033_22_1_St-JuctionTo_Shape029_39_1_Ed_JuctionFrom_Shape034_19_1_St-JuctionTo_Shape030_34_1_Ed_JuctionTo_Shape027_13_1_Ed-JuctionFrom_Shape032_36_1_St_JuctionTo_Shape031_14_1_Ed-JuctionFrom_Shape035_31_1_St_14" function="internal">
        <lane id=":cluster_JuctionFrom_Shape033_22_1_St-JuctionTo_Shape029_39_1_Ed_JuctionFrom_Shape034_19_1_St-JuctionTo_Shape030_34_1_Ed_JuctionTo_Shape027_13_1_Ed-JuctionFrom_Shape032_36_1_St_JuctionTo_Shape031_14_1_Ed-JuctionFrom_Shape035_31_1_St_14_0" index="0" allow="private emergency authority army vip passenger hov taxi bus coach delivery truck trailer motorcycle evehicle custom1 custom2" speed="18.06" length="1.34" shape="3455.20,87.36,-23.42 3455.21,87.76,-23.42 3455.23,88.03,-23.42 3455.23,88.31,-23.42 3455.19,88.70,-23.42"/>
    </edge>
    <edge id=":cluster_JuctionFrom_Shape033_22_1_St-JuctionTo_Shape029_39_1_Ed_JuctionFrom_Shape034_19_1_St-JuctionTo_Shape030_34_1_Ed_JuctionTo_Shape027_13_1_Ed-JuctionFrom_Shape032_36_1_St_JuctionTo_Shape031_14_1_Ed-JuctionFrom_Shape035_31_1_St_15" function="internal">
        <lane id=":cluster_JuctionFrom_Shape033_22_1_St-JuctionTo_Shape029_39_1_Ed_JuctionFrom_Shape034_19_1_St-JuctionTo_Shape030_34_1_Ed_JuctionTo_Shape027_13_1_Ed-JuctionFrom_Shape032_36_1_St_JuctionTo_Shape031_14_1_Ed-JuctionFrom_Shape035_31_1_St_15_0" index="0" allow="private emergency authority army vip passenger hov taxi bus coach delivery truck trailer motorcycle evehicle custom1 custom2" speed="18.06" length="5.26" shape="3455.20,87.36,-23.42 3450.89,90.38,-23.42"/>
    </edge>
    <edge id=":cluster_JuctionTo_Shape007_7_1_Ed-JuctionFrom_Shape036_27_1_St_JuctionTo_Shape008_3_1_Ed-JuctionFrom_Shape037_8_1_St_JuctionTo_Shape012_4_1_Ed-JuctionFrom_Shape038_15_1_St_JuctionTo_Shape019_18_1_Ed-JuctionFrom_Shape039_32_1_St_JuctionTo_Shape028_20_1_Ed-JuctionFrom_Shape040_38_1_St_0" function="internal">
        <lane id=":cluster_JuctionTo_Shape007_7_1_Ed-JuctionFrom_Shape036_27_1_St_JuctionTo_Shape008_3_1_Ed-JuctionFrom_Shape037_8_1_St_JuctionTo_Shape012_4_1_Ed-JuctionFrom_Shape038_15_1_St_JuctionTo_Shape019_18_1_Ed-JuctionFrom_Shape039_32_1_St_JuctionTo_Shape028_20_1_Ed-JuctionFrom_Shape040_38_1_St_0_0" index="0" allow="private emergency authority army vip passenger hov taxi bus coach delivery truck trailer motorcycle evehicle custom1 custom2" speed="18.06" length="10.44" shape="3436.02,127.06,-23.42 3435.35,124.33,-23.42 3433.75,122.87,-23.42 3431.78,121.49,-23.42 3429.98,119.01,-23.42"/>
    </edge>
    <edge id=":cluster_JuctionTo_Shape007_7_1_Ed-JuctionFrom_Shape036_27_1_St_JuctionTo_Shape008_3_1_Ed-JuctionFrom_Shape037_8_1_St_JuctionTo_Shape012_4_1_Ed-JuctionFrom_Shape038_15_1_St_JuctionTo_Shape019_18_1_Ed-JuctionFrom_Shape039_32_1_St_JuctionTo_Shape028_20_1_Ed-JuctionFrom_Shape040_38_1_St_1" function="internal">
        <lane id=":cluster_JuctionTo_Shape007_7_1_Ed-JuctionFrom_Shape036_27_1_St_JuctionTo_Shape008_3_1_Ed-JuctionFrom_Shape037_8_1_St_JuctionTo_Shape012_4_1_Ed-JuctionFrom_Shape038_15_1_St_JuctionTo_Shape019_18_1_Ed-JuctionFrom_Shape039_32_1_St_JuctionTo_Shape028_20_1_Ed-JuctionFrom_Shape040_38_1_St_1_0" index="0" allow="private emergency authority army vip passenger hov taxi bus coach delivery truck trailer motorcycle evehicle custom1 custom2" speed="18.06" length="3.81" shape="3436.02,127.06,-23.42 3435.99,123.25,-23.42"/>
    </edge>
    <edge id=":cluster_JuctionTo_Shape007_7_1_Ed-JuctionFrom_Shape036_27_1_St_JuctionTo_Shape008_3_1_Ed-JuctionFrom_Shape037_8_1_St_JuctionTo_Shape012_4_1_Ed-JuctionFrom_Shape038_15_1_St_JuctionTo_Shape019_18_1_Ed-JuctionFrom_Shape039_32_1_St_JuctionTo_Shape028_20_1_Ed-JuctionFrom_Shape040_38_1_St_2" function="internal">
        <lane id=":cluster_JuctionTo_Shape007_7_1_Ed-JuctionFrom_Shape036_27_1_St_JuctionTo_Shape008_3_1_Ed-JuctionFrom_Shape037_8_1_St_JuctionTo_Shape012_4_1_Ed-JuctionFrom_Shape038_15_1_St_JuctionTo_Shape019_18_1_Ed-JuctionFrom_Shape039_32_1_St_JuctionTo_Shape028_20_1_Ed-JuctionFrom_Shape040_38_1_St_2_0" index="0" allow="private emergency authority army vip passenger hov taxi bus coach delivery truck trailer motorcycle evehicle custom1 custom2" speed="18.06" length="5.03" shape="3436.02,127.06,-23.42 3439.21,123.17,-23.42"/>
    </edge>
    <edge id=":cluster_JuctionTo_Shape007_7_1_Ed-JuctionFrom_Shape036_27_1_St_JuctionTo_Shape008_3_1_Ed-JuctionFrom_Shape037_8_1_St_JuctionTo_Shape012_4_1_Ed-JuctionFrom_Shape038_15_1_St_JuctionTo_Shape019_18_1_Ed-JuctionFrom_Shape039_32_1_St_JuctionTo_Shape028_20_1_Ed-JuctionFrom_Shape040_38_1_St_3" function="internal">
        <lane id=":cluster_JuctionTo_Shape007_7_1_Ed-JuctionFrom_Shape036_27_1_St_JuctionTo_Shape008_3_1_Ed-JuctionFrom_Shape037_8_1_St_JuctionTo_Shape012_4_1_Ed-JuctionFrom_Shape038_15_1_St_JuctionTo_Shape019_18_1_Ed-JuctionFrom_Shape039_32_1_St_JuctionTo_Shape028_20_1_Ed-JuctionFrom_Shape040_38_1_St_3_0" index="0" allow="private emergency authority army vip passenger hov taxi bus coach delivery truck trailer motorcycle evehicle custom1 custom2" speed="18.06" length="7.83" shape="3436.02,127.06,-23.42 3442.68,122.94,-23.42"/>
    </edge>
    <edge id=":cluster_JuctionTo_Shape007_7_1_Ed-JuctionFrom_Shape036_27_1_St_JuctionTo_Shape008_3_1_Ed-JuctionFrom_Shape037_8_1_St_JuctionTo_Shape012_4_1_Ed-JuctionFrom_Shape038_15_1_St_JuctionTo_Shape019_18_1_Ed-JuctionFrom_Shape039_32_1_St_JuctionTo_Shape028_20_1_Ed-JuctionFrom_Shape040_38_1_St_4" function="internal">
        <lane id=":cluster_JuctionTo_Shape007_7_1_Ed-JuctionFrom_Shape036_27_1_St_JuctionTo_Shape008_3_1_Ed-JuctionFrom_Shape037_8_1_St_JuctionTo_Shape012_4_1_Ed-JuctionFrom_Shape038_15_1_St_JuctionTo_Shape019_18_1_Ed-JuctionFrom_Shape039_32_1_St_JuctionTo_Shape028_20_1_Ed-JuctionFrom_Shape040_38_1_St_4_0" index="0" allow="private emergency authority army vip passenger hov taxi bus coach delivery truck trailer motorcycle evehicle custom1 custom2" speed="4.90" length="10.21" shape="3436.02,127.06,-23.42 3446.23,126.79,-23.42"/>
    </edge>
    <edge id=":cluster_JuctionTo_Shape007_7_1_Ed-JuctionFrom_Shape036_27_1_St_JuctionTo_Shape008_3_1_Ed-JuctionFrom_Shape037_8_1_St_JuctionTo_Shape012_4_1_Ed-JuctionFrom_Shape038_15_1_St_JuctionTo_Shape019_18_1_Ed-JuctionFrom_Shape039_32_1_St_JuctionTo_Shape028_20_1_Ed-JuctionFrom_Shape040_38_1_St_5" function="internal">
        <lane id=":cluster_JuctionTo_Shape007_7_1_Ed-JuctionFrom_Shape036_27_1_St_JuctionTo_Shape008_3_1_Ed-JuctionFrom_Shape037_8_1_St_JuctionTo_Shape012_4_1_Ed-JuctionFrom_Shape038_15_1_St_JuctionTo_Shape019_18_1_Ed-JuctionFrom_Shape039_32_1_St_JuctionTo_Shape028_20_1_Ed-JuctionFrom_Shape040_38_1_St_5_0" index="0" allow="private emergency authority army vip passenger hov taxi bus coach delivery truck trailer motorcycle evehicle custom1 custom2" speed="18.06" length="12.75" shape="3439.24,126.97,-23.42 3438.06,124.26,-23.42 3435.36,122.83,-23.42 3432.28,121.48,-23.42 3429.98,119.01,-23.42"/>
    </edge>
    <edge id=":cluster_JuctionTo_Shape007_7_1_Ed-JuctionFrom_Shape036_27_1_St_JuctionTo_Shape008_3_1_Ed-JuctionFrom_Shape037_8_1_St_JuctionTo_Shape012_4_1_Ed-JuctionFrom_Shape038_15_1_St_JuctionTo_Shape019_18_1_Ed-JuctionFrom_Shape039_32_1_St_JuctionTo_Shape028_20_1_Ed-JuctionFrom_Shape040_38_1_St_6" function="internal">