<?xml version="1.0" encoding="UTF-8"?>

<!-- generated on 2022-06-23 15:28:25 by Eclipse SUMO netedit Version 1.10.0
<configuration xmlns:xsi="http://www.w3.org/2001/XMLSchema-instance" xsi:noNamespaceSchemaLocation="http://sumo.dlr.de/xsd/netconvertConfiguration.xsd">

    <input>
        <sumo-net-file value="D:\@Tll_Training\SUMO_Projects\SumoLaneSeperateAndCombine\seperateMerge\hsk.net.xml"/>
    </input>

    <output>
        <output-file value="D:\@Tll_Training\SUMO_Projects\SumoLaneSeperateAndCombine\seperateMerge\hsk.net.xml"/>
    </output>

    <processing>
        <geometry.min-radius.fix.railways value="false"/>
        <geometry.max-grade.fix value="false"/>
        <offset.disable-normalization value="true"/>
        <lefthand value="false"/>
    </processing>

    <junctions>
        <no-internal-links value="true"/>
        <no-turnarounds value="true"/>
        <junctions.corner-detail value="5"/>
        <junctions.limit-turn-speed value="5.5"/>
        <rectangular-lane-cut value="false"/>
    </junctions>

    <pedestrian>
        <walkingareas value="false"/>
    </pedestrian>

    <report>
        <aggregate-warnings value="5"/>
    </report>

</configuration>
-->

<net version="1.9" junctionCornerDetail="5" limitTurnSpeed="5.50" xmlns:xsi="http://www.w3.org/2001/XMLSchema-instance" xsi:noNamespaceSchemaLocation="http://sumo.dlr.de/xsd/net_file.xsd">

    <location netOffset="-274535.29,-4297431.43" convBoundary="3494.43,108.13,3579.21,109.22" origBoundary="-77.596256,38.797200,-77.215237,38.890060" projParameter="+proj=utm +zone=18 +ellps=WGS84 +datum=WGS84 +units=m +no_defs"/>

    <edge id="eT" from="j1" to="j2" priority="14" type="highway.motorway" spreadType="center" shape="">
        <lane id="eT_0" index="0" allow="private emergency authority army vip passenger hov taxi bus coach delivery truck trailer motorcycle evehicle custom1 custom2" speed="18.06" length="84.80" shape="3579.26,113.88,-25.03 3494.48,114.62,-23.47"/>
        <lane id="eT_1" index="1" allow="private emergency authority army vip passenger hov taxi bus coach delivery truck trailer motorcycle evehicle custom1 custom2" speed="18.06" length="84.80" shape="3579.22,109.76,-25.03 3494.46,111.07,-23.46"/>
        <lane id="eT_2" index="2" allow="private emergency authority army vip passenger hov taxi bus coach delivery truck trailer motorcycle evehicle custom1 custom2" speed="18.06" length="84.80" shape="3579.21,106.15,-25.03 3494.41,107.65,-23.46"/>
        <lane id="eT_3" index="3" allow="private emergency authority army vip passenger hov taxi bus coach delivery truck trailer motorcycle evehicle custom1 custom2" speed="18.06" length="84.80" shape="3579.21,102.74,-25.03 3494.38,103.53,-23.46"/>
    </edge>

    <junction id="j1" type="dead_end" x="3579.21" y="108.13" z="-25.03" incLanes="" intLanes="" shape=""/>
    <junction id="j2" type="dead_end" x="3494.43" y="109.22" z="-23.47" incLanes="eT_0 eT_1 eT_2 eT_3" intLanes="" shape=""/>

</net>
