<?xml version="1.0" encoding="UTF-8"?>

<!-- generated on 2022-06-16 12:40:42 by Eclipse SUMO netedit Version 1.13.0
<configuration xmlns:xsi="http://www.w3.org/2001/XMLSchema-instance" xsi:noNamespaceSchemaLocation="http://sumo.dlr.de/xsd/netconvertConfiguration.xsd">

    <input>
        <sumo-net-file value="D:\@Tll_Training\SUMO_Projects\LinkIndex\RightOfWay_Signal_Layout.net.xml"/>
    </input>

    <output>
        <output-file value="D:\@Tll_Training\SUMO_Projects\LinkIndex\RightOfWay_Signal_Layout.net.xml"/>
    </output>

    <processing>
        <geometry.min-radius.fix.railways value="false"/>
        <geometry.max-grade.fix value="false"/>
        <offset.disable-normalization value="true"/>
        <lefthand value="false"/>
    </processing>

    <junctions>
        <no-internal-links value="true"/>
        <no-turnarounds value="true"/>
        <junctions.corner-detail value="5"/>
        <junctions.limit-turn-speed value="5.5"/>
        <rectangular-lane-cut value="false"/>
    </junctions>

    <pedestrian>
        <walkingareas value="false"/>
    </pedestrian>

    <report>
        <aggregate-warnings value="5"/>
    </report>

</configuration>
-->

<net version="1.9" junctionCornerDetail="5" limitTurnSpeed="5.50" xmlns:xsi="http://www.w3.org/2001/XMLSchema-instance" xsi:noNamespaceSchemaLocation="http://sumo.dlr.de/xsd/net_file.xsd">

    <location netOffset="-274535.29,-4297431.43" convBoundary="78.91,-302.28,226.54,-61.14" origBoundary="-77.596256,38.797200,-77.215237,38.890060" projParameter="+proj=utm +zone=18 +ellps=WGS84 +datum=WGS84 +units=m +no_defs"/>

    <type id="highway.bridleway" priority="1" numLanes="1" speed="2.78" allow="pedestrian" oneway="1" width="2.00"/>
    <type id="highway.bus_guideway" priority="1" numLanes="1" speed="27.78" allow="bus" oneway="1"/>
    <type id="highway.cycleway" priority="1" numLanes="1" speed="8.33" allow="bicycle" oneway="0" width="1.00"/>
    <type id="highway.footway" priority="1" numLanes="1" speed="2.78" allow="pedestrian" oneway="1" width="2.00"/>
    <type id="highway.ford" priority="1" numLanes="1" speed="2.78" allow="army" oneway="0"/>
    <type id="highway.living_street" priority="2" numLanes="1" speed="2.78" disallow="tram rail_urban rail rail_electric rail_fast ship" oneway="0"/>
    <type id="highway.motorway" priority="14" numLanes="2" speed="39.44" allow="private emergency authority army vip passenger hov taxi bus coach delivery truck trailer motorcycle evehicle custom1 custom2" oneway="1"/>
    <type id="highway.motorway_link" priority="9" numLanes="1" speed="22.22" allow="private emergency authority army vip passenger hov taxi bus coach delivery truck trailer motorcycle evehicle custom1 custom2" oneway="1"/>
    <type id="highway.path" priority="1" numLanes="1" speed="2.78" allow="pedestrian bicycle" oneway="0" width="2.00"/>
    <type id="highway.pedestrian" priority="1" numLanes="1" speed="2.78" allow="pedestrian" oneway="1" width="2.00"/>
    <type id="highway.primary" priority="12" numLanes="2" speed="27.78" disallow="tram rail_urban rail rail_electric rail_fast ship" oneway="0"/>
    <type id="highway.primary_link" priority="7" numLanes="1" speed="22.22" disallow="tram rail_urban rail rail_electric rail_fast ship" oneway="0"/>
    <type id="highway.raceway" priority="15" numLanes="2" speed="83.33" allow="vip" oneway="0"/>
    <type id="highway.residential" priority="3" numLanes="1" speed="13.89" disallow="tram rail_urban rail rail_electric rail_fast ship" oneway="0"/>
    <type id="highway.secondary" priority="11" numLanes="1" speed="27.78" disallow="tram rail_urban rail rail_electric rail_fast ship" oneway="0"/>
    <type id="highway.secondary_link" priority="6" numLanes="1" speed="22.22" disallow="tram rail_urban rail rail_electric rail_fast ship" oneway="0"/>
    <type id="highway.service" priority="1" numLanes="1" speed="5.56" allow="pedestrian delivery bicycle" oneway="0"/>
    <type id="highway.stairs" priority="1" numLanes="1" speed="1.39" allow="pedestrian" oneway="1" width="2.00"/>
    <type id="highway.step" priority="1" numLanes="1" speed="1.39" allow="pedestrian" oneway="1" width="2.00"/>
    <type id="highway.steps" priority="1" numLanes="1" speed="1.39" allow="pedestrian" oneway="1" width="2.00"/>
    <type id="highway.tertiary" priority="10" numLanes="1" speed="22.22" disallow="tram rail_urban rail rail_electric rail_fast ship" oneway="0"/>
    <type id="highway.tertiary_link" priority="5" numLanes="1" speed="22.22" disallow="tram rail_urban rail rail_electric rail_fast ship" oneway="0"/>
    <type id="highway.track" priority="1" numLanes="1" speed="5.56" allow="pedestrian motorcycle moped bicycle" oneway="0"/>
    <type id="highway.trunk" priority="13" numLanes="2" speed="27.78" disallow="pedestrian bicycle tram rail_urban rail rail_electric rail_fast ship" oneway="0"/>
    <type id="highway.trunk_link" priority="8" numLanes="1" speed="22.22" disallow="pedestrian bicycle tram rail_urban rail rail_electric rail_fast ship" oneway="0"/>
    <type id="highway.unclassified" priority="4" numLanes="1" speed="13.89" disallow="tram rail_urban rail rail_electric rail_fast ship" oneway="0"/>
    <type id="highway.unsurfaced" priority="1" numLanes="1" speed="8.33" disallow="tram rail_urban rail rail_electric rail_fast ship" oneway="0"/>
    <type id="railway.highspeed" priority="21" numLanes="1" speed="69.44" allow="rail_fast" oneway="1"/>
    <type id="railway.light_rail" priority="19" numLanes="1" speed="27.78" allow="rail_urban" oneway="1"/>
    <type id="railway.preserved" priority="16" numLanes="1" speed="27.78" allow="rail" oneway="1"/>
    <type id="railway.rail" priority="20" numLanes="1" speed="44.44" allow="rail" oneway="1"/>
    <type id="railway.subway" priority="18" numLanes="1" speed="27.78" allow="rail_urban" oneway="1"/>
    <type id="railway.tram" priority="17" numLanes="1" speed="13.89" allow="tram" oneway="1"/>

    <edge id="edgeId_Shape001_3_1_St" from="JuctionFrom_Shape001_3_1_St" to="JuctionTo_Shape001_3_1_Ed-JuctionFrom_Shape002_4_1_St" priority="14" type="highway.motorway" spreadType="center">
        <lane id="edgeId_Shape001_3_1_St_0" index="0" allow="private emergency authority army vip passenger hov taxi bus coach delivery truck trailer motorcycle evehicle custom1 custom2" speed="18.06" length="153.31" shape="202.30,-299.83 91.77,-194.27"/>
    </edge>
    <edge id="edgeId_Shape002_4_1_St" from="JuctionTo_Shape001_3_1_Ed-JuctionFrom_Shape002_4_1_St" to="JuctionTo_Shape002_4_1_Ed" priority="14" type="highway.motorway" spreadType="center" shape="91.43,-193.95 87.15,-176.23 92.41,-163.40 109.26,-144.07 122.41,-133.09 136.87,-120.40 164.65,-98.75 196.58,-81.26 221.29,-64.86 226.54,-61.14">
        <lane id="edgeId_Shape002_4_1_St_0" index="0" allow="private emergency authority army vip passenger hov taxi bus coach delivery truck trailer motorcycle evehicle custom1 custom2" speed="18.06" length="201.83" shape="91.32,-193.49 87.15,-176.23 92.41,-163.40 109.26,-144.07 122.41,-133.09 136.87,-120.40 164.65,-98.75 196.58,-81.26 221.29,-64.86 226.54,-61.14"/>
    </edge>
    <edge id="edgeId_Shape003_1_1_St" from="JuctionFrom_Shape003_1_1_St" to="JuctionTo_Shape003_1_1_Ed-JuctionFrom_Shape004_2_1_St" priority="14" type="highway.motorway" spreadType="center">
        <lane id="edgeId_Shape003_1_1_St_0" index="0" allow="private emergency authority army vip passenger hov taxi bus coach delivery truck trailer motorcycle evehicle custom1 custom2" speed="18.06" length="153.31" shape="194.06,-302.28 83.53,-196.71"/>
    </edge>
    <edge id="edgeId_Shape004_2_1_St" from="JuctionTo_Shape003_1_1_Ed-JuctionFrom_Shape004_2_1_St" to="JuctionTo_Shape004_2_1_Ed" priority="14" type="highway.motorway" spreadType="center" shape="83.19,-196.39 78.91,-178.68 84.17,-165.84 101.03,-146.51 114.17,-135.53 128.64,-122.85 156.41,-101.20 188.34,-83.71 213.05,-67.30 218.30,-63.59">
        <lane id="edgeId_Shape004_2_1_St_0" index="0" allow="private emergency authority army vip passenger hov taxi bus coach delivery truck trailer motorcycle evehicle custom1 custom2" speed="18.06" length="201.82" shape="83.08,-195.93 78.91,-178.68 84.17,-165.84 101.03,-146.51 114.17,-135.53 128.64,-122.85 156.41,-101.20 188.34,-83.71 213.05,-67.30 218.30,-63.59"/>
    </edge>

    <tlLogic id="Round001" type="static" programID="0" offset="0">
        <phase duration="36" state="Gr"/>
        <phase duration="4"  state="yr"/>
        <phase duration="5"  state="rr"/>
        <phase duration="36" state="rG"/>
        <phase duration="4"  state="ry"/>
        <phase duration="5"  state="rr"/>
    </tlLogic>

    <junction id="JuctionFrom_Shape001_3_1_St" type="dead_end" x="202.30" y="-299.83" incLanes="" intLanes="" shape="201.19,-300.99 203.41,-298.67"/>
    <junction id="JuctionFrom_Shape003_1_1_St" type="dead_end" x="194.06" y="-302.28" incLanes="" intLanes="" shape="192.95,-303.44 195.17,-301.12"/>
    <junction id="JuctionTo_Shape001_3_1_Ed-JuctionFrom_Shape002_4_1_St" type="traffic_light" x="91.43" y="-193.95" incLanes="edgeId_Shape001_3_1_St_0" intLanes="" shape="92.87,-193.12 90.66,-195.43 90.19,-194.94 90.05,-194.75 89.95,-194.53 89.86,-194.25 89.76,-193.87">
        <request index="0" response="0" foes="0"/>
    </junction>
    <junction id="JuctionTo_Shape002_4_1_Ed" type="dead_end" x="226.54" y="-61.14" incLanes="edgeId_Shape002_4_1_St_0" intLanes="" shape="227.47,-62.45 225.61,-59.83"/>
    <junction id="JuctionTo_Shape003_1_1_Ed-JuctionFrom_Shape004_2_1_St" type="traffic_light" x="83.19" y="-196.39" incLanes="edgeId_Shape003_1_1_St_0" intLanes="" shape="84.63,-195.56 82.42,-197.87 81.95,-197.38 81.81,-197.19 81.71,-196.97 81.62,-196.69 81.52,-196.31">
        <request index="0" response="0" foes="0"/>
    </junction>
    <junction id="JuctionTo_Shape004_2_1_Ed" type="dead_end" x="218.30" y="-63.59" incLanes="edgeId_Shape004_2_1_St_0" intLanes="" shape="219.22,-64.90 217.38,-62.28"/>

    <connection from="edgeId_Shape001_3_1_St" to="edgeId_Shape002_4_1_St" fromLane="0" toLane="0" tl="Round001" linkIndex="0" dir="s" state="O"/>
    <connection from="edgeId_Shape003_1_1_St" to="edgeId_Shape004_2_1_St" fromLane="0" toLane="0" tl="Round001" linkIndex="1" dir="s" state="O"/>

</net>
