<?xml version="1.0" encoding="UTF-8"?>

<!-- generated on 2022-06-13 15:17:50 by Eclipse SUMO netedit Version 1.13.0
-->

<routes xmlns:xsi="http://www.w3.org/2001/XMLSchema-instance" xsi:noNamespaceSchemaLocation="http://sumo.dlr.de/xsd/routes_file.xsd">
    <!-- Vehicles, persons and containers (sorted by depart) -->
    <trip id="t_0" depart="0.00" departLane="1" color="128,0,0" from="edgeId_Shape304_2_St" to="edgeId_Shape322_3_St"/>
    <trip id="t_1" depart="0.00" departLane="2" color="0,128,0" from="edgeId_Shape304_2_St" to="edgeId_Shape024_5_St"/>
    <trip id="t_10" depart="0.00" departLane="1" color="red" from="edgeId_Shape308_1_St" to="edgeId_Shape307_6_St"/>
    <trip id="t_11" depart="0.00" departLane="2" color="green" from="edgeId_Shape308_1_St" to="edgeId_Shape307_6_St"/>
    <trip id="t_12" depart="0.00" departLane="0" color="white" from="edgeId_Shape308_1_St" to="edgeId_Shape308_1_St"/>
    <trip id="t_13" depart="0.00" departLane="0" departPos="6.00" color="blue" from="edgeId_Shape308_1_St" to="edgeId_Shape307_6_St"/>
    <trip id="t_14" depart="0.00" departLane="3" color="blue" from="edgeId_Shape308_1_St" to="edgeId_Shape024_5_St"/>
    <trip id="t_15" depart="0.00" departLane="1" departPos="6.00" from="edgeId_Shape308_1_St" to="edgeId_Shape024_5_St"/>
    <trip id="t_16" depart="0.00" departLane="2" departPos="6.00" color="cyan" from="edgeId_Shape308_1_St" to="edgeId_Shape024_5_St"/>
    <trip id="t_2" depart="0.00" departLane="0" color="magenta" from="edgeId_Shape304_2_St" to="edgeId_Shape307_6_St"/>
    <trip id="t_3" depart="0.00" departLane="3" color="0,0,128" from="edgeId_Shape304_2_St" to="edgeId_Shape024_5_St"/>
    <trip id="t_4" depart="0.00" departLane="4" color="128,128,0" from="edgeId_Shape304_2_St" to="edgeId_Shape307_6_St"/>
    <trip id="t_5" depart="0.00" departLane="0" departPos="6.00" color="128,0,128" from="edgeId_Shape304_2_St" to="edgeId_Shape024_5_St"/>
    <trip id="t_6" depart="0.00" departLane="1" departPos="6.00" color="128,0,128" from="edgeId_Shape317_4_St" to="edgeId_Shape322_3_St"/>
    <trip id="t_7" depart="0.00" departLane="0" color="0,128,128" from="edgeId_Shape317_4_St" to="edgeId_Shape024_5_St"/>
    <trip id="t_8" depart="0.00" departLane="1" color="128,0,0" from="edgeId_Shape317_4_St" to="edgeId_Shape322_3_St"/>
    <trip id="t_9" depart="0.00" departLane="0" departPos="6.00" color="0,128,0" from="edgeId_Shape317_4_St" to="edgeId_Shape024_5_St"/>
</routes>
