<?xml version="1.0" encoding="UTF-8"?>

<!-- generated on 2022-06-10 16:45:21 by Eclipse SUMO netedit Version 1.13.0
-->

<routes xmlns:xsi="http://www.w3.org/2001/XMLSchema-instance" xsi:noNamespaceSchemaLocation="http://sumo.dlr.de/xsd/routes_file.xsd">
    <!-- Routes -->
    <route id="r_0" edges="E3 E4" color="0,0,0,0"/>
    <route id="r_1" edges="E3 E6 E7 E8" color="0,0,0,0"/>
    <route id="r_2" edges="E3 E5 E9" color="0,0,0,0"/>
    <!-- Vehicles, persons and containers (sorted by depart) -->
    <trip id="t_0" depart="0.00" departLane="0" from="E3" to="E4"/>
    <trip id="t_10" depart="0.00" from="E0" to="E4" via="E6 E7 E8 E3"/>
    <trip id="t_5" depart="0.00" from="E1" to="E4"/>
    <trip id="t_6" depart="0.00" from="E1" to="E4" via="E6 E7 E8 E3"/>
    <trip id="t_7" depart="0.00" from="E1" to="E9" via="E5"/>
    <trip id="t_8" depart="0.00" from="E0" to="E4"/>
    <trip id="t_9" depart="0.00" from="E0" to="E9" via="E5"/>
    <trip id="t_1" depart="1.00" departLane="1" from="E3" to="E4"/>
    <trip id="t_2" depart="2.00" departLane="2" from="E3" to="E4"/>
    <trip id="t_3" depart="3.00" departLane="3" from="E3" to="E8" via="E6 E7"/>
    <trip id="t_4" depart="4.00" departLane="4" from="E3" to="E9" via="E5"/>
</routes>
