<?xml version="1.0" encoding="UTF-8"?>

<!-- generated on 2022-06-13 11:31:53 by Eclipse SUMO netedit Version 1.13.0
-->

<routes xmlns:xsi="http://www.w3.org/2001/XMLSchema-instance" xsi:noNamespaceSchemaLocation="http://sumo.dlr.de/xsd/routes_file.xsd">
    <!-- Vehicles, persons and containers (sorted by depart) -->
    <flow id="f_0" begin="0.00" departLane="1" from="edgeId_Shape317_4_St" to="edgeId_Shape322_3_St" end="3600.00" />
    <flow id="f_1" begin="0.00" departLane="0" from="edgeId_Shape317_4_St" to="edgeId_Shape024_5_St" end="3600.00" />
    <flow id="f_10" begin="0.00" departLane="0" color="blue" from="edgeId_Shape304_2_St" to="edgeId_Shape024_5_St" end="3600.00" />
    <flow id="f_11" begin="0.00" departLane="0" from="edgeId_Shape308_1_St" to="edgeId_Shape307_6_St" end="3600.00" />
    <flow id="f_12" begin="0.00" departLane="3" from="edgeId_Shape308_1_St" to="edgeId_Shape307_6_St" end="3600.00" />
    <flow id="f_13" begin="0.00" departLane="1" from="edgeId_Shape308_1_St" to="edgeId_Shape307_6_St" end="3600.00" />
    <flow id="f_2" begin="0.00" departLane="1" departPos="6.00" from="edgeId_Shape317_4_St" to="edgeId_Shape024_5_St" end="3600.00" />
    <flow id="f_3" begin="0.00" departLane="0" departPos="6.00" from="edgeId_Shape317_4_St" to="edgeId_Shape322_3_St" end="3600.00" />
    <flow id="f_4" begin="0.00" departLane="2" color="magenta" from="edgeId_Shape304_2_St" to="edgeId_Shape322_3_St" end="3600.00" />
    <flow id="f_5" begin="0.00" departLane="1" color="128,128,0" from="edgeId_Shape304_2_St" to="edgeId_Shape307_6_St" end="3600.00" />
    <flow id="f_6" begin="0.00" departLane="4" from="edgeId_Shape304_2_St" to="edgeId_Shape304_2_St" end="3600.00" />
    <flow id="f_7" begin="0.00" departLane="0" color="0,128,128" from="edgeId_Shape304_2_St" to="edgeId_Shape307_6_St" end="3600.00" />
    <flow id="f_8" begin="0.00" color="red" from="edgeId_Shape304_2_St" to="edgeId_Shape024_5_St" end="3600.00" />
    <flow id="f_9" begin="0.00" departLane="3" color="cyan" from="edgeId_Shape304_2_St" to="edgeId_Shape024_5_St" end="3600.00" />
    <trip id="t_0" depart="0.00" departLane="0" departPos="1.00" from="edgeId_Shape308_1_St" to="edgeId_Shape024_5_St"/>
    <trip id="t_1" depart="0.00" departLane="2" from="edgeId_Shape308_1_St" to="edgeId_Shape024_5_St"/>
</routes>
