<?xml version="1.0" encoding="UTF-8"?>

<!-- generated on 2022-06-10 19:09:31 by Eclipse SUMO netedit Version 1.13.0
<configuration xmlns:xsi="http://www.w3.org/2001/XMLSchema-instance" xsi:noNamespaceSchemaLocation="http://sumo.dlr.de/xsd/netconvertConfiguration.xsd">

    <input>
        <sumo-net-file value="D:\@Tll_Training\SUMO_Projects\DisableLaneChange\disablelanechange.net.xml"/>
    </input>

    <output>
        <output-file value="D:\@Tll_Training\SUMO_Projects\DisableLaneChange\disablelanechange.net.xml"/>
    </output>

    <processing>
        <geometry.min-radius.fix.railways value="false"/>
        <geometry.max-grade.fix value="false"/>
        <offset.disable-normalization value="true"/>
        <lefthand value="false"/>
    </processing>

    <junctions>
        <no-turnarounds value="true"/>
        <junctions.corner-detail value="5"/>
        <junctions.limit-turn-speed value="5.5"/>
        <rectangular-lane-cut value="false"/>
    </junctions>

    <pedestrian>
        <walkingareas value="false"/>
    </pedestrian>

    <report>
        <aggregate-warnings value="5"/>
    </report>

</configuration>
-->

<net version="1.9" junctionCornerDetail="5" limitTurnSpeed="5.50" xmlns:xsi="http://www.w3.org/2001/XMLSchema-instance" xsi:noNamespaceSchemaLocation="http://sumo.dlr.de/xsd/net_file.xsd">

    <location netOffset="0.00,0.00" convBoundary="-1.43,-210.89,609.11,275.71" origBoundary="-10000000000.00,-10000000000.00,10000000000.00,10000000000.00" projParameter="!"/>

    <edge id=":cluster_J1_J10_J12_J14_J16_J3_J35_J37_J39_J41_J43_J45_J47_J49_J5_J7_0" function="internal">
        <lane id=":cluster_J1_J10_J12_J14_J16_J3_J35_J37_J39_J41_J43_J45_J47_J49_J5_J7_0_0" index="0" speed="13.89" length="60.10" shape="324.62,127.19 321.37,67.18"/>
    </edge>
    <edge id=":cluster_J1_J10_J12_J14_J16_J3_J35_J37_J39_J41_J43_J45_J47_J49_J5_J7_1" function="internal">
        <lane id=":cluster_J1_J10_J12_J14_J16_J3_J35_J37_J39_J41_J43_J45_J47_J49_J5_J7_1_0" index="0" speed="13.89" length="60.01" shape="324.62,127.19 324.74,67.18"/>
    </edge>
    <edge id=":cluster_J1_J10_J12_J14_J16_J3_J35_J37_J39_J41_J43_J45_J47_J49_J5_J7_2" function="internal">
        <lane id=":cluster_J1_J10_J12_J14_J16_J3_J35_J37_J39_J41_J43_J45_J47_J49_J5_J7_2_0" index="0" speed="13.89" length="60.12" shape="324.62,127.19 328.22,67.18"/>
    </edge>
    <edge id=":cluster_J1_J10_J12_J14_J16_J3_J35_J37_J39_J41_J43_J45_J47_J49_J5_J7_3" function="internal">
        <lane id=":cluster_J1_J10_J12_J14_J16_J3_J35_J37_J39_J41_J43_J45_J47_J49_J5_J7_3_0" index="0" speed="13.89" length="60.44" shape="324.62,127.19 325.73,116.41 328.18,97.18 330.63,77.96 331.75,67.17"/>
    </edge>
    <edge id=":cluster_J1_J10_J12_J14_J16_J3_J35_J37_J39_J41_J43_J45_J47_J49_J5_J7_4" function="internal">
        <lane id=":cluster_J1_J10_J12_J14_J16_J3_J35_J37_J39_J41_J43_J45_J47_J49_J5_J7_4_0" index="0" speed="13.89" length="53.38" shape="324.62,127.19 326.29,110.19 331.33,98.04 339.74,90.76 351.51,88.33"/>
    </edge>
    <edge id=":cluster_J1_J10_J12_J14_J16_J3_J35_J37_J39_J41_J43_J45_J47_J49_J5_J7_5" function="internal">
        <lane id=":cluster_J1_J10_J12_J14_J16_J3_J35_J37_J39_J41_J43_J45_J47_J49_J5_J7_5_0" index="0" speed="13.89" length="50.48" shape="324.62,127.19 326.29,111.66 331.33,100.57 339.72,93.92 351.48,91.70"/>
    </edge>
    <edge id=":cluster_J1_J10_J12_J14_J16_J3_J35_J37_J39_J41_J43_J45_J47_J49_J5_J7_6" function="internal">
        <lane id=":cluster_J1_J10_J12_J14_J16_J3_J35_J37_J39_J41_J43_J45_J47_J49_J5_J7_6_0" index="0" speed="13.89" length="47.69" shape="324.62,127.19 326.29,113.12 331.33,103.07 339.74,97.05 351.51,95.04"/>
    </edge>
    <edge id=":cluster_J1_J10_J12_J14_J16_J3_J35_J37_J39_J41_J43_J45_J47_J49_J5_J7_7" function="internal">
        <lane id=":cluster_J1_J10_J12_J14_J16_J3_J35_J37_J39_J41_J43_J45_J47_J49_J5_J7_7_0" index="0" speed="13.89" length="44.94" shape="324.62,127.19 326.30,114.58 331.33,105.57 339.74,100.17 351.51,98.38"/>
    </edge>
    <edge id=":cluster_J1_J10_J12_J14_J16_J3_J35_J37_J39_J41_J43_J45_J47_J49_J5_J7_8" function="internal">
        <lane id=":cluster_J1_J10_J12_J14_J16_J3_J35_J37_J39_J41_J43_J45_J47_J49_J5_J7_8_0" index="0" speed="13.89" length="60.40" shape="328.23,127.19 327.16,116.41 324.80,97.19 322.44,77.96 321.37,67.18"/>
    </edge>
    <edge id=":cluster_J1_J10_J12_J14_J16_J3_J35_J37_J39_J41_J43_J45_J47_J49_J5_J7_9" function="internal">
        <lane id=":cluster_J1_J10_J12_J14_J16_J3_J35_J37_J39_J41_J43_J45_J47_J49_J5_J7_9_0" index="0" speed="13.89" length="60.11" shape="328.23,127.19 324.74,67.18"/>
    </edge>
    <edge id=":cluster_J1_J10_J12_J14_J16_J3_J35_J37_J39_J41_J43_J45_J47_J49_J5_J7_10" function="internal">
        <lane id=":cluster_J1_J10_J12_J14_J16_J3_J35_J37_J39_J41_J43_J45_J47_J49_J5_J7_10_0" index="0" speed="13.89" length="60.01" shape="328.23,127.19 328.22,67.18"/>
    </edge>
    <edge id=":cluster_J1_J10_J12_J14_J16_J3_J35_J37_J39_J41_J43_J45_J47_J49_J5_J7_11" function="internal">
        <lane id=":cluster_J1_J10_J12_J14_J16_J3_J35_J37_J39_J41_J43_J45_J47_J49_J5_J7_11_0" index="0" speed="13.89" length="60.12" shape="328.23,127.19 331.75,67.17"/>
    </edge>
    <edge id=":cluster_J1_J10_J12_J14_J16_J3_J35_J37_J39_J41_J43_J45_J47_J49_J5_J7_12" function="internal">
        <lane id=":cluster_J1_J10_J12_J14_J16_J3_J35_J37_J39_J41_J43_J45_J47_J49_J5_J7_12_0" index="0" speed="13.89" length="50.75" shape="328.23,127.19 329.67,110.19 334.03,98.04 341.31,90.76 351.51,88.33"/>
    </edge>
    <edge id=":cluster_J1_J10_J12_J14_J16_J3_J35_J37_J39_J41_J43_J45_J47_J49_J5_J7_13" function="internal">
        <lane id=":cluster_J1_J10_J12_J14_J16_J3_J35_J37_J39_J41_J43_J45_J47_J49_J5_J7_13_0" index="0" speed="13.89" length="47.79" shape="328.23,127.19 329.67,111.66 334.03,100.57 341.30,93.92 351.48,91.70"/>
    </edge>
    <edge id=":cluster_J1_J10_J12_J14_J16_J3_J35_J37_J39_J41_J43_J45_J47_J49_J5_J7_14" function="internal">
        <lane id=":cluster_J1_J10_J12_J14_J16_J3_J35_J37_J39_J41_J43_J45_J47_J49_J5_J7_14_0" index="0" speed="13.89" length="44.94" shape="328.23,127.19 329.67,113.12 334.04,103.07 341.31,97.05 351.51,95.04"/>
    </edge>
    <edge id=":cluster_J1_J10_J12_J14_J16_J3_J35_J37_J39_J41_J43_J45_J47_J49_J5_J7_15" function="internal">
        <lane id=":cluster_J1_J10_J12_J14_J16_J3_J35_J37_J39_J41_J43_J45_J47_J49_J5_J7_15_0" index="0" speed="13.46" length="42.11" shape="328.23,127.19 329.68,114.58 334.04,105.57 341.32,100.17 351.51,98.38"/>
    </edge>
    <edge id=":cluster_J1_J10_J12_J14_J16_J3_J35_J37_J39_J41_J43_J45_J47_J49_J5_J7_16" function="internal">
        <lane id=":cluster_J1_J10_J12_J14_J16_J3_J35_J37_J39_J41_J43_J45_J47_J49_J5_J7_16_0" index="0" speed="13.89" length="60.96" shape="332.02,127.19 330.36,116.41 326.70,97.19 323.04,77.96 321.37,67.18"/>
    </edge>
    <edge id=":cluster_J1_J10_J12_J14_J16_J3_J35_J37_J39_J41_J43_J45_J47_J49_J5_J7_17" function="internal">
        <lane id=":cluster_J1_J10_J12_J14_J16_J3_J35_J37_J39_J41_J43_J45_J47_J49_J5_J7_17_0" index="0" speed="13.89" length="60.46" shape="332.02,127.19 330.88,116.41 328.38,97.18 325.88,77.96 324.74,67.18"/>
    </edge>
    <edge id=":cluster_J1_J10_J12_J14_J16_J3_J35_J37_J39_J41_J43_J45_J47_J49_J5_J7_18" function="internal">
        <lane id=":cluster_J1_J10_J12_J14_J16_J3_J35_J37_J39_J41_J43_J45_J47_J49_J5_J7_18_0" index="0" speed="13.89" length="60.13" shape="332.02,127.19 328.22,67.18"/>
    </edge>
    <edge id=":cluster_J1_J10_J12_J14_J16_J3_J35_J37_J39_J41_J43_J45_J47_J49_J5_J7_19" function="internal">
        <lane id=":cluster_J1_J10_J12_J14_J16_J3_J35_J37_J39_J41_J43_J45_J47_J49_J5_J7_19_0" index="0" speed="13.89" length="60.02" shape="332.02,127.19 331.75,67.17"/>
    </edge>
    <edge id=":cluster_J1_J10_J12_J14_J16_J3_J35_J37_J39_J41_J43_J45_J47_J49_J5_J7_20" function="internal">
        <lane id=":cluster_J1_J10_J12_J14_J16_J3_J35_J37_J39_J41_J43_J45_J47_J49_J5_J7_20_0" index="0" speed="13.89" length="48.09" shape="332.02,127.19 333.24,110.19 336.89,98.04 342.98,90.76 351.51,88.33"/>
    </edge>
    <edge id=":cluster_J1_J10_J12_J14_J16_J3_J35_J37_J39_J41_J43_J45_J47_J49_J5_J7_21" function="internal">
        <lane id=":cluster_J1_J10_J12_J14_J16_J3_J35_J37_J39_J41_J43_J45_J47_J49_J5_J7_21_0" index="0" speed="13.89" length="45.06" shape="332.02,127.19 333.24,111.66 336.89,100.57 342.97,93.92 351.48,91.70"/>
    </edge>
    <edge id=":cluster_J1_J10_J12_J14_J16_J3_J35_J37_J39_J41_J43_J45_J47_J49_J5_J7_22" function="internal">
        <lane id=":cluster_J1_J10_J12_J14_J16_J3_J35_J37_J39_J41_J43_J45_J47_J49_J5_J7_22_0" index="0" speed="13.47" length="42.14" shape="332.02,127.19 333.24,113.12 336.89,103.07 342.98,97.05 351.51,95.04"/>
    </edge>
    <edge id=":cluster_J1_J10_J12_J14_J16_J3_J35_J37_J39_J41_J43_J45_J47_J49_J5_J7_23" function="internal">
        <lane id=":cluster_J1_J10_J12_J14_J16_J3_J35_J37_J39_J41_J43_J45_J47_J49_J5_J7_23_0" index="0" speed="13.01" length="39.24" shape="332.02,127.19 333.24,114.58 336.89,105.58 342.98,100.18 351.51,98.38"/>
    </edge>
    <edge id=":cluster_J1_J10_J12_J14_J16_J3_J35_J37_J39_J41_J43_J45_J47_J49_J5_J7_24" function="internal">
        <lane id=":cluster_J1_J10_J12_J14_J16_J3_J35_J37_J39_J41_J43_J45_J47_J49_J5_J7_24_0" index="0" speed="11.73" length="31.70" shape="303.35,88.42 311.24,87.09 316.87,83.11 320.25,76.47 321.37,67.18"/>
    </edge>
    <edge id=":cluster_J1_J10_J12_J14_J16_J3_J35_J37_J39_J41_J43_J45_J47_J49_J5_J7_25" function="internal">
        <lane id=":cluster_J1_J10_J12_J14_J16_J3_J35_J37_J39_J41_J43_J45_J47_J49_J5_J7_25_0" index="0" speed="12.20" length="34.37" shape="303.35,88.42 312.70,87.09 319.38,83.11 323.40,76.47 324.74,67.18"/>
    </edge>
    <edge id=":cluster_J1_J10_J12_J14_J16_J3_J35_J37_J39_J41_J43_J45_J47_J49_J5_J7_26" function="internal">
        <lane id=":cluster_J1_J10_J12_J14_J16_J3_J35_J37_J39_J41_J43_J45_J47_J49_J5_J7_26_0" index="0" speed="12.69" length="37.22" shape="303.35,88.42 314.22,87.09 321.99,83.11 326.66,76.47 328.22,67.18"/>
    </edge>
    <edge id=":cluster_J1_J10_J12_J14_J16_J3_J35_J37_J39_J41_J43_J45_J47_J49_J5_J7_27" function="internal">
        <lane id=":cluster_J1_J10_J12_J14_J16_J3_J35_J37_J39_J41_J43_J45_J47_J49_J5_J7_27_0" index="0" speed="13.17" length="40.19" shape="303.35,88.42 315.77,87.09 324.64,83.11 329.97,76.47 331.75,67.17"/>
    </edge>
    <edge id=":cluster_J1_J10_J12_J14_J16_J3_J35_J37_J39_J41_J43_J45_J47_J49_J5_J7_28" function="internal">
        <lane id=":cluster_J1_J10_J12_J14_J16_J3_J35_J37_J39_J41_J43_J45_J47_J49_J5_J7_28_0" index="0" speed="13.89" length="48.16" shape="303.35,88.42 351.51,88.33"/>
    </edge>
    <edge id=":cluster_J1_J10_J12_J14_J16_J3_J35_J37_J39_J41_J43_J45_J47_J49_J5_J7_29" function="internal">
        <lane id=":cluster_J1_J10_J12_J14_J16_J3_J35_J37_J39_J41_J43_J45_J47_J49_J5_J7_29_0" index="0" speed="13.89" length="48.24" shape="303.35,88.42 351.48,91.70"/>
    </edge>
    <edge id=":cluster_J1_J10_J12_J14_J16_J3_J35_J37_J39_J41_J43_J45_J47_J49_J5_J7_30" function="internal">
        <lane id=":cluster_J1_J10_J12_J14_J16_J3_J35_J37_J39_J41_J43_J45_J47_J49_J5_J7_30_0" index="0" speed="13.89" length="48.62" shape="303.35,88.42 312.28,89.45 327.43,91.73 342.58,94.00 351.51,95.04"/>
    </edge>
    <edge id=":cluster_J1_J10_J12_J14_J16_J3_J35_J37_J39_J41_J43_J45_J47_J49_J5_J7_31" function="internal">
        <lane id=":cluster_J1_J10_J12_J14_J16_J3_J35_J37_J39_J41_J43_J45_J47_J49_J5_J7_31_0" index="0" speed="13.89" length="49.19" shape="303.35,88.42 312.28,89.98 327.43,93.40 342.58,96.82 351.51,98.38"/>
    </edge>
    <edge id=":cluster_J1_J10_J12_J14_J16_J3_J35_J37_J39_J41_J43_J45_J47_J49_J5_J7_32" function="internal">
        <lane id=":cluster_J1_J10_J12_J14_J16_J3_J35_J37_J39_J41_J43_J45_J47_J49_J5_J7_32_0" index="0" speed="12.22" length="34.52" shape="303.29,91.71 311.21,90.18 316.86,85.58 320.25,77.91 321.37,67.18"/>
    </edge>
    <edge id=":cluster_J1_J10_J12_J14_J16_J3_J35_J37_J39_J41_J43_J45_J47_J49_J5_J7_33" function="internal">
        <lane id=":cluster_J1_J10_J12_J14_J16_J3_J35_J37_J39_J41_J43_J45_J47_J49_J5_J7_33_0" index="0" speed="12.67" length="37.10" shape="303.29,91.71 312.67,90.17 319.37,85.57 323.39,77.91 324.74,67.18"/>
    </edge>
    <edge id=":cluster_J1_J10_J12_J14_J16_J3_J35_J37_J39_J41_J43_J45_J47_J49_J5_J7_34" function="internal">
        <lane id=":cluster_J1_J10_J12_J14_J16_J3_J35_J37_J39_J41_J43_J45_J47_J49_J5_J7_34_0" index="0" speed="13.12" length="39.88" shape="303.29,91.71 314.19,90.17 321.98,85.57 326.65,77.91 328.22,67.18"/>
    </edge>
    <edge id=":cluster_J1_J10_J12_J14_J16_J3_J35_J37_J39_J41_J43_J45_J47_J49_J5_J7_35" function="internal">
        <lane id=":cluster_J1_J10_J12_J14_J16_J3_J35_J37_J39_J41_J43_J45_J47_J49_J5_J7_35_0" index="0" speed="13.57" length="42.77" shape="303.29,91.71 315.74,90.17 324.63,85.57 329.97,77.91 331.75,67.17"/>
    </edge>
    <edge id=":cluster_J1_J10_J12_J14_J16_J3_J35_J37_J39_J41_J43_J45_J47_J49_J5_J7_36" function="internal">
        <lane id=":cluster_J1_J10_J12_J14_J16_J3_J35_J37_J39_J41_J43_J45_J47_J49_J5_J7_36_0" index="0" speed="13.89" length="48.34" shape="303.29,91.71 351.51,88.33"/>
    </edge>
    <edge id=":cluster_J1_J10_J12_J14_J16_J3_J35_J37_J39_J41_J43_J45_J47_J49_J5_J7_37" function="internal">
        <lane id=":cluster_J1_J10_J12_J14_J16_J3_J35_J37_J39_J41_J43_J45_J47_J49_J5_J7_37_0" index="0" speed="13.89" length="48.19" shape="303.29,91.71 351.48,91.70"/>
    </edge>
    <edge id=":cluster_J1_J10_J12_J14_J16_J3_J35_J37_J39_J41_J43_J45_J47_J49_J5_J7_38" function="internal">
        <lane id=":cluster_J1_J10_J12_J14_J16_J3_J35_J37_J39_J41_J43_J45_J47_J49_J5_J7_38_0" index="0" speed="13.89" length="48.33" shape="303.29,91.71 351.51,95.04"/>
    </edge>
    <edge id=":cluster_J1_J10_J12_J14_J16_J3_J35_J37_J39_J41_J43_J45_J47_J49_J5_J7_39" function="internal">
        <lane id=":cluster_J1_J10_J12_J14_J16_J3_J35_J37_J39_J41_J43_J45_J47_J49_J5_J7_39_0" index="0" speed="13.89" length="48.68" shape="303.29,91.71 312.23,92.75 327.40,95.04 342.57,97.34 351.51,98.38"/>
    </edge>
    <edge id=":cluster_J1_J10_J12_J14_J16_J3_J35_J37_J39_J41_J43_J45_J47_J49_J5_J7_40" function="internal">
        <lane id=":cluster_J1_J10_J12_J14_J16_J3_J35_J37_J39_J41_J43_J45_J47_J49_J5_J7_40_0" index="0" speed="12.71" length="37.39" shape="303.29,95.05 311.21,93.31 316.86,88.08 320.25,79.37 321.37,67.18"/>
    </edge>
    <edge id=":cluster_J1_J10_J12_J14_J16_J3_J35_J37_J39_J41_J43_J45_J47_J49_J5_J7_41" function="internal">
        <lane id=":cluster_J1_J10_J12_J14_J16_J3_J35_J37_J39_J41_J43_J45_J47_J49_J5_J7_41_0" index="0" speed="13.12" length="39.90" shape="303.29,95.05 312.67,93.31 319.37,88.08 323.39,79.37 324.74,67.18"/>
    </edge>
    <edge id=":cluster_J1_J10_J12_J14_J16_J3_J35_J37_J39_J41_J43_J45_J47_J49_J5_J7_42" function="internal">
        <lane id=":cluster_J1_J10_J12_J14_J16_J3_J35_J37_J39_J41_J43_J45_J47_J49_J5_J7_42_0" index="0" speed="13.55" length="42.60" shape="303.29,95.05 314.19,93.31 321.98,88.08 326.65,79.37 328.22,67.18"/>
    </edge>
    <edge id=":cluster_J1_J10_J12_J14_J16_J3_J35_J37_J39_J41_J43_J45_J47_J49_J5_J7_43" function="internal">
        <lane id=":cluster_J1_J10_J12_J14_J16_J3_J35_J37_J39_J41_J43_J45_J47_J49_J5_J7_43_0" index="0" speed="13.89" length="45.42" shape="303.29,95.05 315.73,93.31 324.63,88.08 329.96,79.37 331.75,67.17"/>
    </edge>
    <edge id=":cluster_J1_J10_J12_J14_J16_J3_J35_J37_J39_J41_J43_J45_J47_J49_J5_J7_44" function="internal">
        <lane id=":cluster_J1_J10_J12_J14_J16_J3_J35_J37_J39_J41_J43_J45_J47_J49_J5_J7_44_0" index="0" speed="13.89" length="48.69" shape="303.29,95.05 312.23,94.00 327.40,91.69 342.57,89.38 351.51,88.33"/>
    </edge>
    <edge id=":cluster_J1_J10_J12_J14_J16_J3_J35_J37_J39_J41_J43_J45_J47_J49_J5_J7_45" function="internal">
        <lane id=":cluster_J1_J10_J12_J14_J16_J3_J35_J37_J39_J41_J43_J45_J47_J49_J5_J7_45_0" index="0" speed="13.89" length="48.31" shape="303.29,95.05 351.48,91.70"/>
    </edge>
    <edge id=":cluster_J1_J10_J12_J14_J16_J3_J35_J37_J39_J41_J43_J45_J47_J49_J5_J7_46" function="internal">
        <lane id=":cluster_J1_J10_J12_J14_J16_J3_J35_J37_J39_J41_J43_J45_J47_J49_J5_J7_46_0" index="0" speed="13.89" length="48.22" shape="303.29,95.05 351.51,95.04"/>
    </edge>
    <edge id=":cluster_J1_J10_J12_J14_J16_J3_J35_J37_J39_J41_J43_J45_J47_J49_J5_J7_47" function="internal">
        <lane id=":cluster_J1_J10_J12_J14_J16_J3_J35_J37_J39_J41_J43_J45_J47_J49_J5_J7_47_0" index="0" speed="13.89" length="48.33" shape="303.29,95.05 351.51,98.38"/>
    </edge>
    <edge id=":cluster_J1_J10_J12_J14_J16_J3_J35_J37_J39_J41_J43_J45_J47_J49_J5_J7_48" function="internal">
        <lane id=":cluster_J1_J10_J12_J14_J16_J3_J35_J37_J39_J41_J43_J45_J47_J49_J5_J7_48_0" index="0" speed="13.18" length="40.31" shape="303.29,98.39 311.21,96.44 316.86,90.59 320.25,80.84 321.37,67.18"/>
    </edge>
    <edge id=":cluster_J1_J10_J12_J14_J16_J3_J35_J37_J39_J41_J43_J45_J47_J49_J5_J7_49" function="internal">
        <lane id=":cluster_J1_J10_J12_J14_J16_J3_J35_J37_J39_J41_J43_J45_J47_J49_J5_J7_49_0" index="0" speed="13.57" length="42.75" shape="303.29,98.39 312.67,96.44 319.37,90.59 323.39,80.83 324.74,67.18"/>
    </edge>
    <edge id=":cluster_J1_J10_J12_J14_J16_J3_J35_J37_J39_J41_J43_J45_J47_J49_J5_J7_50" function="internal">
        <lane id=":cluster_J1_J10_J12_J14_J16_J3_J35_J37_J39_J41_J43_J45_J47_J49_J5_J7_50_0" index="0" speed="13.89" length="45.38" shape="303.29,98.39 314.19,96.44 321.98,90.59 326.65,80.83 328.22,67.18"/>
    </edge>
    <edge id=":cluster_J1_J10_J12_J14_J16_J3_J35_J37_J39_J41_J43_J45_J47_J49_J5_J7_51" function="internal">
        <lane id=":cluster_J1_J10_J12_J14_J16_J3_J35_J37_J39_J41_J43_J45_J47_J49_J5_J7_51_0" index="0" speed="13.89" length="48.13" shape="303.29,98.39 315.73,96.44 324.63,90.59 329.96,80.83 331.75,67.17"/>
    </edge>
    <edge id=":cluster_J1_J10_J12_J14_J16_J3_J35_J37_J39_J41_J43_J45_J47_J49_J5_J7_52" function="internal">
        <lane id=":cluster_J1_J10_J12_J14_J16_J3_J35_J37_J39_J41_J43_J45_J47_J49_J5_J7_52_0" index="0" speed="13.89" length="49.27" shape="303.29,98.39 312.23,96.82 327.40,93.36 342.57,89.90 351.51,88.33"/>
    </edge>
    <edge id=":cluster_J1_J10_J12_J14_J16_J3_J35_J37_J39_J41_J43_J45_J47_J49_J5_J7_53" function="internal">
        <lane id=":cluster_J1_J10_J12_J14_J16_J3_J35_J37_J39_J41_J43_J45_J47_J49_J5_J7_53_0" index="0" speed="13.89" length="48.66" shape="303.29,98.39 312.23,97.34 327.39,95.04 342.54,92.74 351.48,91.70"/>
    </edge>
    <edge id=":cluster_J1_J10_J12_J14_J16_J3_J35_J37_J39_J41_J43_J45_J47_J49_J5_J7_54" function="internal">
        <lane id=":cluster_J1_J10_J12_J14_J16_J3_J35_J37_J39_J41_J43_J45_J47_J49_J5_J7_54_0" index="0" speed="13.89" length="48.34" shape="303.29,98.39 351.51,95.04"/>
    </edge>
    <edge id=":cluster_J1_J10_J12_J14_J16_J3_J35_J37_J39_J41_J43_J45_J47_J49_J5_J7_55" function="internal">
        <lane id=":cluster_J1_J10_J12_J14_J16_J3_J35_J37_J39_J41_J43_J45_J47_J49_J5_J7_55_0" index="0" speed="13.89" length="48.22" shape="303.29,98.39 351.51,98.38"/>
    </edge>
    <edge id=":cluster_J1_J10_J12_J14_J16_J3_J35_J37_J39_J41_J43_J45_J47_J49_J5_J7_56" function="internal">
        <lane id=":cluster_J1_J10_J12_J14_J16_J3_J35_J37_J39_J41_J43_J45_J47_J49_J5_J7_56_0" index="0" speed="13.89" length="60.01" shape="321.22,127.19 321.37,67.18"/>
    </edge>
    <edge id=":cluster_J1_J10_J12_J14_J16_J3_J35_J37_J39_J41_J43_J45_J47_J49_J5_J7_57" function="internal">
        <lane id=":cluster_J1_J10_J12_J14_J16_J3_J35_J37_J39_J41_J43_J45_J47_J49_J5_J7_57_0" index="0" speed="13.89" length="60.11" shape="321.22,127.19 324.74,67.18"/>
    </edge>
    <edge id=":cluster_J1_J10_J12_J14_J16_J3_J35_J37_J39_J41_J43_J45_J47_J49_J5_J7_58" function="internal">
        <lane id=":cluster_J1_J10_J12_J14_J16_J3_J35_J37_J39_J41_J43_J45_J47_J49_J5_J7_58_0" index="0" speed="13.89" length="60.42" shape="321.22,127.19 322.31,116.41 324.72,97.18 327.12,77.96 328.22,67.18"/>
    </edge>
    <edge id=":cluster_J1_J10_J12_J14_J16_J3_J35_J37_J39_J41_J43_J45_J47_J49_J5_J7_59" function="internal">
        <lane id=":cluster_J1_J10_J12_J14_J16_J3_J35_J37_J39_J41_J43_J45_J47_J49_J5_J7_59_0" index="0" speed="13.89" length="60.94" shape="321.22,127.19 322.86,116.41 326.48,97.18 330.10,77.96 331.75,67.17"/>
    </edge>
    <edge id=":cluster_J1_J10_J12_J14_J16_J3_J35_J37_J39_J41_J43_J45_J47_J49_J5_J7_60" function="internal">
        <lane id=":cluster_J1_J10_J12_J14_J16_J3_J35_J37_J39_J41_J43_J45_J47_J49_J5_J7_60_0" index="0" speed="13.89" length="55.93" shape="321.22,127.19 323.11,110.19 328.79,98.04 338.26,90.76 351.51,88.33"/>
    </edge>
    <edge id=":cluster_J1_J10_J12_J14_J16_J3_J35_J37_J39_J41_J43_J45_J47_J49_J5_J7_61" function="internal">
        <lane id=":cluster_J1_J10_J12_J14_J16_J3_J35_J37_J39_J41_J43_J45_J47_J49_J5_J7_61_0" index="0" speed="13.89" length="53.09" shape="321.22,127.19 323.11,111.66 328.79,100.57 338.24,93.92 351.48,91.70"/>
    </edge>
    <edge id=":cluster_J1_J10_J12_J14_J16_J3_J35_J37_J39_J41_J43_J45_J47_J49_J5_J7_62" function="internal">
        <lane id=":cluster_J1_J10_J12_J14_J16_J3_J35_J37_J39_J41_J43_J45_J47_J49_J5_J7_62_0" index="0" speed="13.89" length="50.36" shape="321.22,127.19 323.11,113.12 328.79,103.07 338.26,97.05 351.51,95.04"/>
    </edge>
    <edge id=":cluster_J1_J10_J12_J14_J16_J3_J35_J37_J39_J41_J43_J45_J47_J49_J5_J7_63" function="internal">
        <lane id=":cluster_J1_J10_J12_J14_J16_J3_J35_J37_J39_J41_J43_J45_J47_J49_J5_J7_63_0" index="0" speed="13.89" length="47.67" shape="321.22,127.19 323.11,114.58 328.79,105.57 338.26,100.17 351.51,98.38"/>
    </edge>

    <edge id="E0" from="J0" to="cluster_J1_J10_J12_J14_J16_J3_J35_J37_J39_J41_J43_J45_J47_J49_J5_J7" priority="-1" shape="-1.15,99.96 303.29,99.99">
        <lane id="E0_0" index="0" speed="13.89" length="304.44" shape="-1.15,98.36 303.29,98.39"/>
    </edge>
    <edge id="E1" from="J2" to="cluster_J1_J10_J12_J14_J16_J3_J35_J37_J39_J41_J43_J45_J47_J49_J5_J7" priority="-1" shape="-1.08,96.61 303.21,96.65">
        <lane id="E1_0" index="0" speed="13.89" length="304.37" shape="-1.08,95.01 303.29,95.05"/>
    </edge>
    <edge id="E10" from="J11" to="cluster_J1_J10_J12_J14_J16_J3_J35_J37_J39_J41_J43_J45_J47_J49_J5_J7" priority="-1" shape="326.30,275.43 326.22,126.59">
        <lane id="E10_0" index="0" speed="13.89" length="148.24" shape="324.70,275.43 324.62,127.19"/>
    </edge>
    <edge id="E12" from="J13" to="cluster_J1_J10_J12_J14_J16_J3_J35_J37_J39_J41_J43_J45_J47_J49_J5_J7" priority="-1" shape="329.96,275.71 329.83,126.84">
        <lane id="E12_0" index="0" speed="13.89" length="148.52" shape="328.36,275.71 328.23,127.19"/>
    </edge>
    <edge id="E14" from="J15" to="cluster_J1_J10_J12_J14_J16_J3_J35_J37_J39_J41_J43_J45_J47_J49_J5_J7" priority="-1" shape="333.62,275.16 333.62,127.19">
        <lane id="E14_0" index="0" speed="13.89" length="147.97" shape="332.02,275.16 332.02,127.19"/>
    </edge>
    <edge id="E2" from="J4" to="cluster_J1_J10_J12_J14_J16_J3_J35_J37_J39_J41_J43_J45_J47_J49_J5_J7" priority="-1" shape="-1.13,93.38 303.18,93.31">
        <lane id="E2_0" index="0" speed="13.89" length="304.42" shape="-1.13,91.78 303.29,91.71"/>
    </edge>
    <edge id="E3" from="J6" to="cluster_J1_J10_J12_J14_J16_J3_J35_J37_J39_J41_J43_J45_J47_J49_J5_J7" priority="-1" shape="-1.43,90.08 303.35,90.02">
        <lane id="E3_0" index="0" speed="13.89" length="304.78" shape="-1.43,88.48 303.35,88.42"/>
    </edge>
    <edge id="E32" from="cluster_J1_J10_J12_J14_J16_J3_J35_J37_J39_J41_J43_J45_J47_J49_J5_J7" to="J36" priority="-1" shape="351.59,99.98 608.82,100.17">
        <lane id="E32_0" index="0" speed="13.89" length="257.31" shape="351.51,98.38 608.82,98.57"/>
    </edge>
    <edge id="E33" from="cluster_J1_J10_J12_J14_J16_J3_J35_J37_J39_J41_J43_J45_J47_J49_J5_J7" to="J38" priority="-1" shape="351.34,96.64 609.08,96.73">
        <lane id="E33_0" index="0" speed="13.89" length="257.57" shape="351.51,95.04 609.08,95.13"/>
    </edge>
    <edge id="E34" from="cluster_J1_J10_J12_J14_J16_J3_J35_J37_J39_J41_J43_J45_J47_J49_J5_J7" to="J40" priority="-1" shape="351.48,93.30 609.11,93.35">
        <lane id="E34_0" index="0" speed="13.89" length="257.63" shape="351.48,91.70 609.11,91.75"/>
    </edge>
    <edge id="E35" from="cluster_J1_J10_J12_J14_J16_J3_J35_J37_J39_J41_J43_J45_J47_J49_J5_J7" to="J42" priority="-1" shape="351.51,89.93 609.05,89.94">
        <lane id="E35_0" index="0" speed="13.89" length="257.54" shape="351.51,88.33 609.05,88.34"/>
    </edge>
    <edge id="E40" from="cluster_J1_J10_J12_J14_J16_J3_J35_J37_J39_J41_J43_J45_J47_J49_J5_J7" to="J44" priority="-1" shape="322.97,67.18 322.81,-210.89">
        <lane id="E40_0" index="0" speed="13.89" length="278.07" shape="321.37,67.18 321.21,-210.89"/>
    </edge>
    <edge id="E41" from="cluster_J1_J10_J12_J14_J16_J3_J35_J37_J39_J41_J43_J45_J47_J49_J5_J7" to="J46" priority="-1" shape="326.34,67.12 326.55,-210.56">
        <lane id="E41_0" index="0" speed="13.89" length="277.74" shape="324.74,67.18 324.95,-210.56"/>
    </edge>
    <edge id="E42" from="cluster_J1_J10_J12_J14_J16_J3_J35_J37_J39_J41_J43_J45_J47_J49_J5_J7" to="J48" priority="-1" shape="329.82,66.79 330.03,-209.99">
        <lane id="E42_0" index="0" speed="13.89" length="277.17" shape="328.22,67.18 328.43,-209.99"/>
    </edge>
    <edge id="E43" from="cluster_J1_J10_J12_J14_J16_J3_J35_J37_J39_J41_J43_J45_J47_J49_J5_J7" to="J50" priority="-1" shape="333.35,66.42 333.52,-210.07">
        <lane id="E43_0" index="0" speed="13.89" length="277.25" shape="331.75,67.17 331.92,-210.07"/>
    </edge>
    <edge id="E8" from="J9" to="cluster_J1_J10_J12_J14_J16_J3_J35_J37_J39_J41_J43_J45_J47_J49_J5_J7" priority="-1" shape="322.82,274.88 322.82,126.13">
        <lane id="E8_0" index="0" speed="13.89" length="147.69" shape="321.22,274.88 321.22,127.19"/>
    </edge>

    <tlLogic id="cluster_J1_J10_J12_J14_J16_J3_J35_J37_J39_J41_J43_J45_J47_J49_J5_J7" type="static" programID="0" offset="0">
        <phase duration="31" state="rrrrrrrrrrrrrrrrGGGGGGGGrrrrrrrrrrrrrrrrrrrrrrrrrrrrrrrrrrrrrrrr"/>
        <phase duration="3"  state="rrrrrrrrrrrrrrrryyyyyyyyrrrrrrrrrrrrrrrrrrrrrrrrrrrrrrrrrrrrrrrr"/>
        <phase duration="31" state="GGGGGGGGrrrrrrrrrrrrrrrrrrrrrrrrrrrrrrrrrrrrrrrrrrrrrrrrrrrrrrrr"/>
        <phase duration="3"  state="yyyyyyyyrrrrrrrrrrrrrrrrrrrrrrrrrrrrrrrrrrrrrrrrrrrrrrrrrrrrrrrr"/>
        <phase duration="31" state="rrrrrrrrrrrrrrrrrrrrrrrrGGGGGGGGrrrrrrrrrrrrrrrrrrrrrrrrrrrrrrrr"/>
        <phase duration="3"  state="rrrrrrrrrrrrrrrrrrrrrrrryyyyyyyyrrrrrrrrrrrrrrrrrrrrrrrrrrrrrrrr"/>
        <phase duration="31" state="rrrrrrrrrrrrrrrrrrrrrrrrrrrrrrrrrrrrrrrrGGGGGGGGrrrrrrrrrrrrrrrr"/>
        <phase duration="3"  state="rrrrrrrrrrrrrrrrrrrrrrrrrrrrrrrrrrrrrrrryyyyyyyyrrrrrrrrrrrrrrrr"/>
        <phase duration="31" state="rrrrrrrrrrrrrrrrrrrrrrrrrrrrrrrrGGGGGGGGrrrrrrrrrrrrrrrrrrrrrrrr"/>
        <phase duration="3"  state="rrrrrrrrrrrrrrrrrrrrrrrrrrrrrrrryyyyyyyyrrrrrrrrrrrrrrrrrrrrrrrr"/>
        <phase duration="31" state="rrrrrrrrGGGGGGGGrrrrrrrrrrrrrrrrrrrrrrrrrrrrrrrrrrrrrrrrrrrrrrrr"/>
        <phase duration="3"  state="rrrrrrrryyyyyyyyrrrrrrrrrrrrrrrrrrrrrrrrrrrrrrrrrrrrrrrrrrrrrrrr"/>
        <phase duration="31" state="rrrrrrrrrrrrrrrrrrrrrrrrrrrrrrrrrrrrrrrrrrrrrrrrGGGGGGGGrrrrrrrr"/>
        <phase duration="3"  state="rrrrrrrrrrrrrrrrrrrrrrrrrrrrrrrrrrrrrrrrrrrrrrrryyyyyyyyrrrrrrrr"/>
        <phase duration="31" state="rrrrrrrrrrrrrrrrrrrrrrrrrrrrrrrrrrrrrrrrrrrrrrrrrrrrrrrrGGGGGGGG"/>
        <phase duration="3"  state="rrrrrrrrrrrrrrrrrrrrrrrrrrrrrrrrrrrrrrrrrrrrrrrrrrrrrrrryyyyyyyy"/>
    </tlLogic>

    <junction id="J0" type="dead_end" x="-1.15" y="99.96" incLanes="" intLanes="" shape="-1.15,99.96 -1.15,96.76"/>
    <junction id="J11" type="dead_end" x="326.30" y="275.43" incLanes="" intLanes="" shape="326.30,275.43 323.10,275.43"/>
    <junction id="J13" type="dead_end" x="329.96" y="275.71" incLanes="" intLanes="" shape="329.96,275.71 326.76,275.71"/>
    <junction id="J15" type="dead_end" x="333.62" y="275.16" incLanes="" intLanes="" shape="333.62,275.16 330.42,275.16"/>
    <junction id="J2" type="dead_end" x="-1.08" y="96.61" incLanes="" intLanes="" shape="-1.08,96.61 -1.08,93.41"/>
    <junction id="J36" type="dead_end" x="608.82" y="100.17" incLanes="E32_0" intLanes="" shape="608.82,96.97 608.82,100.17"/>
    <junction id="J38" type="dead_end" x="609.08" y="96.73" incLanes="E33_0" intLanes="" shape="609.08,93.53 609.08,96.73"/>
    <junction id="J4" type="dead_end" x="-1.13" y="93.38" incLanes="" intLanes="" shape="-1.13,93.38 -1.13,90.18"/>
    <junction id="J40" type="dead_end" x="609.11" y="93.35" incLanes="E34_0" intLanes="" shape="609.11,90.15 609.11,93.35"/>
    <junction id="J42" type="dead_end" x="609.05" y="89.94" incLanes="E35_0" intLanes="" shape="609.05,86.74 609.05,89.94"/>
    <junction id="J44" type="dead_end" x="322.81" y="-210.89" incLanes="E40_0" intLanes="" shape="319.61,-210.89 322.81,-210.89"/>
    <junction id="J46" type="dead_end" x="326.55" y="-210.56" incLanes="E41_0" intLanes="" shape="323.35,-210.56 326.55,-210.56"/>
    <junction id="J48" type="dead_end" x="330.03" y="-209.99" incLanes="E42_0" intLanes="" shape="326.83,-209.99 330.03,-209.99"/>
    <junction id="J50" type="dead_end" x="333.52" y="-210.07" incLanes="E43_0" intLanes="" shape="330.32,-210.07 333.52,-210.07"/>
    <junction id="J6" type="dead_end" x="-1.43" y="90.08" incLanes="" intLanes="" shape="-1.43,90.08 -1.43,86.88"/>
    <junction id="J9" type="dead_end" x="322.82" y="274.88" incLanes="" intLanes="" shape="322.82,274.88 319.62,274.88"/>